case_ny2bus_v1.m
function mpc = case_ny2bus_v1
%case_ny2bus_v1
%The EI 5k updated model data
%------------------------------------------------------------
%Created by:    Jeff Sward 
%Email:         jass983@cornell.edu
%------------------------------------------------------------

%% MATPOWER Case Format : Version 2
mpc.version = '2';

%%-----  Power Flow Data  -----%%
%% system MVA base
mpc.baseMVA = 100;

%% bus data
%	bus_i	type	Pd	Qd	Gs	Bs	area	Vm	Va	baseKV	zone	Vmax	Vmin
mpc.bus = [
	116034	1	0	0	0	0	101	1	-68.05724	345	144	1.1	0.9;
	125000	2	180.675252	0	0	0	102	1	-82.86721	345	154	1.1	0.9;
	125001	2	208.416752	0	0	0	102	1	-89.1514	345	154	1.1	0.9;
	125002	2	51.4919847	0	0	0	102	1	-88.42137	345	154	1.1	0.9;
	126250	1	0	0	0	0	102	1	-69.75962	500	176	1.1	0.9;
	126260	2	20.597041	0	0	0	102	1	-97.09742	345	176	1.1	0.9;
	126261	2	235.217248	0	0	0	102	1	-97.03218	345	176	1.1	0.9;
	126262	2	125.461701	0	0	0	102	1	-98.21289	345	167	1.1	0.9;
	126263	1	0	0	0	0	102	1	-98.69585	345	167	1.1	0.9;
	126267	1	194.417279	0	0	0	102	1	-103.1477	345	169	1.1	0.9;
	126268	1	190.768579	0	0	0	102	1	-103.08892	345	169	1.1	0.9;
	126269	1	190.803885	0	0	0	102	1	-103.0995	345	169	1.1	0.9;
	126270	1	197.451194	0	0	0	102	1	-103.10717	345	169	1.1	0.9;
	126272	1	259.630239	0	0	0	102	1	-117.90603	345	159	1.1	0.9;
	126273	1	259.011213	0	0	0	102	1	-117.9068	345	159	1.1	0.9;
	126274	2	578.492122	0	0	0	102	1	-117.89225	345	159	1.1	0.9;
	126275	2	444.066721	0	0	0	102	1	-117.91423	345	159	1.1	0.9;
	126278	1	0	0	0	0	102	1	-87.46235	345	159	1.1	0.9;
	126280	2	2069.86707	0	0	0	102	1	-117.85162	345	159	1.1	0.9;
	126281	2	659.999403	0	0	0	102	1	-91.8584	345	167	1.1	0.9;
	126282	2	887.167115	0	0	0	102	1	-116.97792	345	159	1.1	0.9;
	126283	1	0	0	0	0	102	1	-116.97874	345	159	1.1	0.9;
	126284	1	0	0	0	0	102	1	-81.34484	345	159	1.1	0.9;
	126285	1	0	0	0	0	102	1	-116.83189	345	159	1.1	0.9;
	126287	2	1864.85948	0	0	0	102	1	-117.65975	345	159	1.1	0.9;
	126288	2	33.9853582	0	0	0	102	1	-98.09597	345	167	1.1	0.9;
	126290	1	0	0	0	0	102	1	-97.4973	345	176	1.1	0.9;
	126291	1	162.33093	0	0	0	102	1	-100.6308	345	167	1.1	0.9;
	126292	1	40.5302442	0	0	0	102	1	-100.70892	345	169	1.1	0.9;
	126293	1	40.5317173	0	0	0	102	1	-100.88197	345	169	1.1	0.9;
	126294	2	189.144669	0	0	0	102	1	-90.86314	345	176	1.1	0.9;
	126295	2	800.12384	0	0	0	102	1	-117.4623	345	159	1.1	0.9;
	126296	1	0	0	0	0	102	1	-71.81432	345	176	1.1	0.9;
	126297	2	569.598285	0	0	0	102	1	-97.64485	345	176	1.1	0.9;
	126298	1	362.244051	0	0	0	102	1	-105.13289	345	169	1.1	0.9;
	126301	1	293.06622	0	0	0	102	1	-105.6218	345	159	1.1	0.9;
	126304	1	1153.04596	0	0	0	102	1	-117.88826	345	159	1.1	0.9;
	126305	1	0	0	0	0	102	1	-96.63686	345	167	1.1	0.9;
	126306	1	0	0	0	0	102	1	-97.89358	345	167	1.1	0.9;
	126320	1	0	0	0	0	102	1	-81.12719	230	159	1.1	0.9;
	126321	1	0	0	0	0	102	1	-78.17363	230	159	1.1	0.9;
	126343	2	3134.28649	0	0	0	102	1	-105.23636	345	169	1.1	0.9;
	126517	1	0	0	0	0	102	1	-116.58182	345	169	1.1	0.9;
	126518	1	0	0	0	0	102	1	-116.58182	345	169	1.1	0.9;
	126600	1	0	0	0	0	102	1	-116.351	345	169	1.1	0.9;
	126601	1	0	0	0	0	102	1	-116.27235	345	169	1.1	0.9;
	126641	1	283.646805	0	0	0	102	1	-117.20017	345	159	1.1	0.9;
	126847	1	-107.409261	0	0	0	102	1	-105.13884	345	159	1.1	0.9;
	128822	1	380.346213	0	0	0	102	1	-108.69083	345	156	1.1	0.9;
	128823	1	377.173528	0	0	0	102	1	-108.62969	345	156	1.1	0.9;
	128824	1	0	0	0	0	102	1	-106.96933	345	156	1.1	0.9;
	128830	1	0	0	0	0	102	1	-106.17825	345	156	1.1	0.9;
	128835	2	962.539777	0	0	0	102	1	-106.89409	345	156	1.1	0.9;
	128842	1	0	0	0	0	102	1	-109.12051	345	156	1.1	0.9;
	128847	2	4262.12655	0	0	0	102	1	-109.31303	345	156	1.1	0.9;
	130750	2	180.75501	0	0	0	102	1	-79.22819	345	151	1.1	0.9;
	130751	2	0	0	0	0	102	1	-46.77191	230	150	1.1	0.9;
	130753	2	119.322349	0	0	0	102	1	-64.47711	345	151	1.1	0.9;
	130754	2	33.9850023	0	0	0	102	1	-27.15443	345	149	1.1	0.9;
	130755	2	349.480963	0	0	0	102	1	-53.52185	345	150	1.1	0.9;
	130756	2	195.669097	0	0	0	102	1	-24.18109	345	149	1.1	0.9;
	130757	1	0	0	0	0	102	1	-44.30322	345	150	1.1	0.9;
	130758	1	114.232945	0	0	0	102	1	-96.70477	345	174	1.1	0.9;
	130759	2	118.815261	0	0	0	102	1	-97.94493	345	174	1.1	0.9;
	130761	1	0	0	0	0	102	1	-47.53876	230	150	1.1	0.9;
	130763	1	219.092956	0	0	0	102	1	-53.9922	230	150	1.1	0.9;
	130764	2	176.051027	0	0	0	102	1	-44.74701	230	150	1.1	0.9;
	130765	1	115.170822	0	0	0	102	1	-55.86293	230	150	1.1	0.9;
	130766	2	168.749105	0	0	0	102	1	-28.1385	230	149	1.1	0.9;
	130767	1	0	0	0	0	102	1	-31.33061	230	149	1.1	0.9;
	130768	1	0	0	0	0	102	1	-54.05237	230	150	1.1	0.9;
	130770	2	0	0	0	0	102	1	-34.17089	230	150	1.1	0.9;
	130772	1	6.78200529	0	0	0	102	1	-54.79337	230	150	1.1	0.9;
	131122	1	0	0	0	0	102	1	-36.6504	230	150	1.1	0.9;
	131123	2	0	0	0	0	102	1	-36.60518	230	150	1.1	0.9;
	131154	2	86.7332385	0	0	0	102	1	-51.20947	230	150	1.1	0.9;
	131157	2	440.790266	0	0	0	102	1	-50.75428	345	150	1.1	0.9;
	135250	2	218.882001	0	0	0	102	1	-25.82974	230	145	1.1	0.9;
	135251	1	0	0	0	0	102	1	-25.44527	230	145	1.1	0.9;
	135303	1	57.7959536	0	0	0	102	1	-26.82482	230	145	1.1	0.9;
	135304	1	58.7043742	0	0	0	102	1	-26.81143	230	145	1.1	0.9;
	135305	1	58.8357603	0	0	0	102	1	-27.07734	230	145	1.1	0.9;
	135306	1	0	0	0	0	102	1	-27.00415	230	145	1.1	0.9;
	135410	1	33.0916983	0	0	0	102	1	-26.97988	230	145	1.1	0.9;
	135411	1	32.5834801	0	0	0	102	1	-29.81976	230	145	1.1	0.9;
	135412	1	32.4248285	0	0	0	102	1	-29.81952	230	145	1.1	0.9;
	135413	2	756.236689	0	0	0	102	1	-29.76977	230	145	1.1	0.9;
	135414	2	14.4120218	0	0	0	102	1	-26.8894	230	145	1.1	0.9;
	135415	1	-38.4644056	0	0	0	102	1	-25.37564	230	145	1.1	0.9;
	135416	1	0.16995628	0	0	0	102	1	-29.79257	230	145	1.1	0.9;
	135417	1	0.16999507	0	0	0	102	1	-29.79246	230	145	1.1	0.9;
	135418	1	12.0275384	0	0	0	102	1	-28.28474	230	145	1.1	0.9;
	135419	1	12.0404713	0	0	0	102	1	-28.30827	230	145	1.1	0.9;
	136150	2	536.246551	0	0	0	102	1	-41.36384	345	146	1.1	0.9;
	136151	2	311.386128	0	0	0	102	1	-43.80416	345	146	1.1	0.9;
	136152	2	286.633507	0	0	0	102	1	-42.78471	345	146	1.1	0.9;
	136153	1	0	0	0	0	102	1	-44.27905	345	146	1.1	0.9;
	136154	2	262.327497	0	0	0	102	1	-38.23161	345	146	1.1	0.9;
	136155	2	69.8549909	0	0	0	102	1	-35.95061	345	146	1.1	0.9;
	136156	1	0	0	0	0	102	1	-37.82542	345	146	1.1	0.9;
	136157	2	16.478015	0	0	0	102	1	-35.90398	345	146	1.1	0.9;
	136158	2	22.4500016	0	0	0	102	1	-35.9012	345	146	1.1	0.9;
	137200	2	429.948366	0	0	0	102	1	-49.352	345	147	1.1	0.9;
	137210	1	174.271857	0	0	0	102	1	-52.65229	230	147	1.1	0.9;
	137450	1	0	0	0	0	102	1	-68.75623	345	148	1.1	0.9;
	137451	1	0	0	0	0	102	1	-76.05851	345	148	1.1	0.9;
	137452	1	171.280777	0	0	0	102	1	-69.46806	345	148	1.1	0.9;
	137453	2	217.738867	0	0	0	102	1	-69.46293	345	148	1.1	0.9;
	137454	2	792.477275	0	0	0	102	1	-69.37106	345	148	1.1	0.9;
	137455	2	0	0	0	0	102	1	-76.11474	345	148	1.1	0.9;
	137558	1	0	0	0	0	102	1	-69.37106	345	148	1.1	0.9;
	137730	2	1027.25671	0	0	0	102	1	-67.91724	230	148	1.1	0.9;
	137927	2	-0.08000013	0	0	0	102	1	-46.15621	230	147	1.1	0.9;
	137928	1	0	0	0	0	102	1	-46.49455	230	147	1.1	0.9;
	146750	1	290.484301	0	0	0	102	1	-97.20213	345	155	1.1	0.9;
	146754	2	246.266811	0	0	0	102	1	-87.38548	345	155	1.1	0.9;
	147827	1	0	0	0	0	102	1	-45.7953	765	162	1.1	0.9;
	147828	1	0	0	0	0	102	1	-35.83516	765	158	1.1	0.9;
	147829	1	0	0	0	0	102	1	-117.90324	345	170	1.1	0.9;
	147830	2	29.660002	0	0	0	102	1	-35.91524	345	161	1.1	0.9;
	147831	2	0	0	0	0	102	1	-67.96065	345	164	1.1	0.9;
	147832	2	34.4998308	0	0	0	102	1	-98.57679	345	166	1.1	0.9;
	147833	1	0	0	0	0	102	1	-49.21973	345	162	1.1	0.9;
	147834	1	0	0	0	0	102	1	-26.92313	345	157	1.1	0.9;
	147835	1	0	0	0	0	102	1	-45.28821	230	162	1.1	0.9;
	147837	1	0	0	0	0	102	1	-35.08959	230	158	1.1	0.9;
	147838	1	0	0	0	0	102	1	-35.08959	230	158	1.1	0.9;
	147839	2	0	0	0	0	102	1	-34.70862	230	158	1.1	0.9;
	147840	2	336.683017	0	0	0	102	1	-34.7176	230	158	1.1	0.9;
	147841	2	1399.71449	0	0	0	102	1	-24.93758	230	157	1.1	0.9;
	147843	1	-0.28138798	0	0	0	102	1	-35.00894	230	158	1.1	0.9;
	147844	2	106.325675	0	0	0	102	1	-34.91303	230	158	1.1	0.9;
	147846	2	265.913719	0	0	0	102	1	-34.98782	230	158	1.1	0.9;
	147857	1	0	0	0	0	102	1	-105.84728	345	171	1.1	0.9;
	147859	1	0	0	0	0	102	1	-35.00312	230	158	1.1	0.9;
	147970	2	0	0	0	0	102	1	-34.78569	230	158	1.1	0.9;
	147980	1	0	0	0	0	102	1	-34.99359	230	158	1.1	0.9;
	148707	1	0	0	0	0	102	1	-117.90324	345	170	1.1	0.9;
	149000	2	746.282023	0	0	0	102	1	-38.61848	345	153	1.1	0.9;
	149001	2	1064.44646	0	0	0	102	1	-39.82767	345	153	1.1	0.9;
	];

%% generator data
%	bus	Pg	Qg	Qmax	Qmin	Vg	mBase	status	Pmax	Pmin	Pc1	Pc2	Qc1min	Qc1max	Qc2min	Qc2max	ramp_agc	ramp_10	ramp_30	ramp_q	apf
mpc.gen = [
	125000	5.5	-2	1	-1	1.02	3	1	5.5	0	0	0	0	0	0	0	0	0	0	0	0;
	125000	5.5	-2	1	-1	1.02	3	1	5.5	0	0	0	0	0	0	0	0	0	0	0	0;
	125000	5.1	0	2.55	-2.55	1	100	1	5.1	0	0	0	0	0	0	0	0	0	0	0	0;
	125000	5.1	0	2.55	-2.55	1	100	1	5.1	0	0	0	0	0	0	0	0	0	0	0	0;
	125000	5	0	2.5	-2.5	1	100	1	5	0	0	0	0	0	0	0	0	0	0	0	0;
	130750	25	0	12.5	-12.5	1	100	1	25	0	0	0	0	0	0	0	0	0	0	0	0;
	126274	0	97.8	57.3	-15	1.04	81	1	156.2	47.831579	0	0	0	0	0	0	0	0	0	0	0;
	126274	200	96.58	74.5	-7.7	1.04	100	1	200	65.2406417	0	0	0	0	0	0	0	0	0	0	0;
	126343	0	0	44	-34	1.03	56	1	31.8	0	0	0	0	0	0	0	0	0	0	0	0;
	126343	0	0	44	-34	1.03	56	1	37.8	0	0	0	0	0	0	0	0	0	0	0	0;
	126287	0	0	10	-10	1	100	1	20	6.2187517	0	0	0	0	0	0	0	0	0	0	0;
	126287	0	0	10	-10	1	100	1	20	6.2187517	0	0	0	0	0	0	0	0	0	0	0;
	126287	20	0	10	-10	1	100	1	20	6.2187517	0	0	0	0	0	0	0	0	0	0	0;
	126287	0	23.67	45.2	-26.8	1.05	92	1	60.3	0	0	0	0	0	0	0	0	0	0	0	0;
	126287	20	0	10	-10	1	100	1	20	6.2187517	0	0	0	0	0	0	0	0	0	0	0;
	126287	20	0	10	-10	1	100	1	20	6.2187517	0	0	0	0	0	0	0	0	0	0	0;
	126287	20	0	10	-10	1	100	1	20	6.2187517	0	0	0	0	0	0	0	0	0	0	0;
	126287	20	0	10	-10	1	100	1	20	6.2187517	0	0	0	0	0	0	0	0	0	0	0;
	126287	0	24.42	47.6	-22.4	1.05	92	1	70.8	60	0	0	0	0	0	0	0	0	0	0	0;
	126287	0	0	45.9	-25.5	1	92	1	66	60	0	0	0	0	0	0	0	0	0	0	0;
	126287	20	0	10	-10	1	100	1	20	6.2187517	0	0	0	0	0	0	0	0	0	0	0;
	126287	20	0	10	-10	1	100	1	20	6.2187517	0	0	0	0	0	0	0	0	0	0	0;
	126287	20	0	10	-10	1	100	1	20	6.2187517	0	0	0	0	0	0	0	0	0	0	0;
	126287	20	0	10	-10	1	100	1	20	6.2187517	0	0	0	0	0	0	0	0	0	0	0;
	126287	0	24.63	48	-21.6	1.05	92	1	72.7	60	0	0	0	0	0	0	0	0	0	0	0;
	126287	20	0	10	-10	1	100	1	20	6.2187517	0	0	0	0	0	0	0	0	0	0	0;
	126287	20	0	10	-10	1	100	1	20	6.2187517	0	0	0	0	0	0	0	0	0	0	0;
	126287	20	0	10	-10	1	100	1	20	6.2187517	0	0	0	0	0	0	0	0	0	0	0;
	126287	20	0	10	-10	1	100	1	20	6.2187517	0	0	0	0	0	0	0	0	0	0	0;
	126287	0	23.96	50	-22.72	1.05	92	1	65.4	60	0	0	0	0	0	0	0	0	0	0	0;
	126287	20	0	10	-10	1	100	1	20	6.2187517	0	0	0	0	0	0	0	0	0	0	0;
	126287	20	0	10	-10	1	100	1	20	6.2187517	0	0	0	0	0	0	0	0	0	0	0;
	126287	20	0	10	-10	1	100	1	20	6.2187517	0	0	0	0	0	0	0	0	0	0	0;
	126287	20	0	10	-10	1	100	1	20	6.2187517	0	0	0	0	0	0	0	0	0	0	0;
	126287	0	24.22	47.6	-22.12	1.05	92	1	67.9	60	0	0	0	0	0	0	0	0	0	0	0;
	126287	0	0	11	-11	1	100	1	22	6.84062687	0	0	0	0	0	0	0	0	0	0	0;
	126287	0	0	11	-11	1	100	1	22	6.84062687	0	0	0	0	0	0	0	0	0	0	0;
	126287	0	0	11	-11	1	100	1	22	6.84062687	0	0	0	0	0	0	0	0	0	0	0;
	126287	0	23.66	44.8	-24.4	1.05	118.4	1	74.8	54.8	0	0	0	0	0	0	0	0	0	0	0;
	126287	0	0	0.4	-0.4	1	100	0	0.8	0.052737163	0	0	0	0	0	0	0	0	0	0	0;
	126287	0	0	0.4	-0.4	1	100	0	0.8	0.052737163	0	0	0	0	0	0	0	0	0	0	0;
	126287	0	0	11	-11	1	100	1	22	6.84062687	0	0	0	0	0	0	0	0	0	0	0;
	126287	0	0	11	-11	1	100	1	22	6.84062687	0	0	0	0	0	0	0	0	0	0	0;
	126287	0	0	11	-11	1	100	1	22	6.84062687	0	0	0	0	0	0	0	0	0	0	0;
	126287	0	23.75	45.3	-24.5	1.05	118.4	1	70.9	54.8	0	0	0	0	0	0	0	0	0	0	0;
	126287	0	0	11	-11	1	100	1	22	6.84062687	0	0	0	0	0	0	0	0	0	0	0;
	126287	0	0	11	-11	1	100	1	22	6.84062687	0	0	0	0	0	0	0	0	0	0	0;
	126287	0	0	11	-11	1	100	1	22	6.84062687	0	0	0	0	0	0	0	0	0	0	0;
	126287	0	23.62	46.8	-24.8	1.05	118.4	1	69.1	54.8	0	0	0	0	0	0	0	0	0	0	0;
	126287	0	0	11	-11	1	100	1	22	6.84062687	0	0	0	0	0	0	0	0	0	0	0;
	126287	0	0	11	-11	1	100	1	22	6.84062687	0	0	0	0	0	0	0	0	0	0	0;
	126287	0	0	11	-11	1	100	1	22	6.84062687	0	0	0	0	0	0	0	0	0	0	0;
	126287	0	23.6	46.8	-24.8	1.05	118.4	1	68.9	54.8	0	0	0	0	0	0	0	0	0	0	0;
	126343	16	0	8	-8	1	100	1	16	3.40987979	0	0	0	0	0	0	0	0	0	0	0;
	126343	0	11.31	58	-40	1.04	93	1	72.4	0	0	0	0	0	0	0	0	0	0	0	0;
	126343	53	0	26.5	-26.5	1	100	1	53	16.479692	0	0	0	0	0	0	0	0	0	0	0;
	126343	0	12.03	58	-40	1.04	93	1	70.7	57	0	0	0	0	0	0	0	0	0	0	0;
	126343	0	0	58	-40	1.02	93	1	68.4	57	0	0	0	0	0	0	0	0	0	0	0;
	126343	0	0	58	-40	1.02	93	1	66.8	0	0	0	0	0	0	0	0	0	0	0	0;
	126343	0	0	58	-40	1.02	93	1	65	0	0	0	0	0	0	0	0	0	0	0	0;
	126343	0	0	58	-40	1.02	93	1	67	0	0	0	0	0	0	0	0	0	0	0	0;
	126287	0	0	47.9	-27.2	1	92	1	66.5	60	0	0	0	0	0	0	0	0	0	0	0;
	126287	0	0	0.45	-0.45	1	100	0	0.9	0.059329309	0	0	0	0	0	0	0	0	0	0	0;
	126287	0	0	0.45	-0.45	1	100	0	0.9	0.059329309	0	0	0	0	0	0	0	0	0	0	0;
	126287	2.74147321	0	10	-10	1	100	1	20	6.2187517	0	0	0	0	0	0	0	0	0	0	0;
	126287	0	0	10	-10	1	100	1	20	6.2187517	0	0	0	0	0	0	0	0	0	0	0;
	126287	20	0	10	-10	1	100	1	20	6.2187517	0	0	0	0	0	0	0	0	0	0	0;
	126287	0	23.56	50	-22.72	1.05	92	1	61.1	0	0	0	0	0	0	0	0	0	0	0	0;
	126287	170	1.41	47.4	-52.1	1.04	213	1	170	0	0	0	0	0	0	0	0	0	0	0	0;
	126287	0	0	9.3	-9.3	1	100	1	18.6	5.78343908	0	0	0	0	0	0	0	0	0	0	0;
	126287	0	0	12.5	-12.5	1	100	1	25	7.77343962	0	0	0	0	0	0	0	0	0	0	0;
	126287	0	0	21.45	-21.45	1	100	1	42.9	13.3392224	0	0	0	0	0	0	0	0	0	0	0;
	126287	80	0	40	-40	1	100	1	80	17.049399	0	0	0	0	0	0	0	0	0	0	0;
	126304	17.1	0	8.55	-8.55	1	100	1	17.1	5.3170327	0	0	0	0	0	0	0	0	0	0	0;
	126262	59.7	31.71	35	0	1.02	65	1	59.7	0	0	0	0	0	0	0	0	0	0	0	0;
	126343	0	37.79	49	-11.55	1.04	100	1	184.6	0	0	0	0	0	0	0	0	0	0	0	0;
	126275	180	52.84	98	-61.5	1.05	208	1	180	36.3636364	0	0	0	0	0	0	0	0	0	0	0;
	126274	180	66.4	98	-61.5	1.05	208	1	180	36.3881402	0	0	0	0	0	0	0	0	0	0	0;
	126295	0	0	0.2	-0.2	1	100	0	0.4	0.026368582	0	0	0	0	0	0	0	0	0	0	0;
	126295	0	0	0.4	-0.4	1	100	0	0.8	0.052737163	0	0	0	0	0	0	0	0	0	0	0;
	126295	0	0	0.4	-0.4	1	100	0	0.8	0.052737163	0	0	0	0	0	0	0	0	0	0	0;
	126295	0	0	0.4	-0.4	1	100	0	0.8	0.052737163	0	0	0	0	0	0	0	0	0	0	0;
	126295	0	0	0.4	-0.4	1	100	0	0.8	0.052737163	0	0	0	0	0	0	0	0	0	0	0;
	126295	0	0	0.4	-0.4	1	100	0	0.8	0.052737163	0	0	0	0	0	0	0	0	0	0	0;
	126295	0	0	10	0	1.03	21.88	1	19.8	0	0	0	0	0	0	0	0	0	0	0	0;
	126295	0	0	10	0	1.03	21.88	1	20.1	0	0	0	0	0	0	0	0	0	0	0	0;
	126343	170	0	85	-85	1	100	1	170	41.0323167	0	0	0	0	0	0	0	0	0	0	0;
	126282	535.5	57.96	312.7	-176.1	1.04	595	1	535.5	147.818128	0	0	0	0	0	0	0	0	0	0	0;
	126288	1299	426.74	495.3	-92.1	1.03	1439	1	1299	386.548522	0	0	0	0	0	0	0	0	0	0	0;
	126295	1027	161.53	332.3	-133	1.04	556	1	1027	189.49738	0	0	0	0	0	0	0	0	0	0	0;
	126282	0	0	10	-10	1	100	1	20	6.2187517	0	0	0	0	0	0	0	0	0	0	0;
	126282	229.144329	100.29	95	-84	1.04	202	1	376.2	73.6362654	0	0	0	0	0	0	0	0	0	0	0;
	126343	376	170.3	142.4	-83.6	1.03	202	1	376	69.8916638	0	0	0	0	0	0	0	0	0	0	0;
	126343	0	0	7.55	-7.55	1	100	1	15.1	4.69515753	0	0	0	0	0	0	0	0	0	0	0;
	126343	19.2	0	9.6	-9.6	1	100	1	19.2	5.97000163	0	0	0	0	0	0	0	0	0	0	0;
	126343	31.8	0	15.9	-15.9	1	100	1	31.8	9.8878152	0	0	0	0	0	0	0	0	0	0	0;
	126343	31.8	0	15.9	-15.9	1	100	1	31.8	9.8878152	0	0	0	0	0	0	0	0	0	0	0;
	126343	0	0	23.25	-23.25	1	100	1	46.5	14.4585977	0	0	0	0	0	0	0	0	0	0	0;
	126343	0	0	23.25	-23.25	1	100	1	46.5	14.4585977	0	0	0	0	0	0	0	0	0	0	0;
	126343	0	0	23.25	-23.25	1	100	1	46.5	14.4585977	0	0	0	0	0	0	0	0	0	0	0;
	126343	0	0	23.25	-23.25	1	100	1	46.5	14.4585977	0	0	0	0	0	0	0	0	0	0	0;
	126343	0	0	23.25	-23.25	1	100	1	46.5	14.4585977	0	0	0	0	0	0	0	0	0	0	0;
	126343	0	0	23.25	-23.25	1	100	1	46.5	14.4585977	0	0	0	0	0	0	0	0	0	0	0;
	126343	249	0	124.5	-124.5	1	100	1	249	53.0662543	0	0	0	0	0	0	0	0	0	0	0;
	126343	361.109621	278.4	147.5	-78	1.02	227	1	387	68.9523902	0	0	0	0	0	0	0	0	0	0	0;
	126287	400	202.02	122.8	-86	1.05	212	1	400	89.6458987	0	0	0	0	0	0	0	0	0	0	0;
	126287	400	208.88	143.4	-80.9	1.05	212	1	400	90.5797101	0	0	0	0	0	0	0	0	0	0	0;
	126265	0	-1.66	50	-20	1.05	105.8	1	102.8	0	0	0	0	0	0	0	0	0	0	0	0;
	126265	13.8343711	-1.66	50	-20	1.05	105.8	1	102.8	0	0	0	0	0	0	0	0	0	0	0	0;
	126265	102.8	-1.66	50	-20	1.05	105.8	1	102.8	0	0	0	0	0	0	0	0	0	0	0	0;
	126265	102.8	-0.75	50	-20	1.05	105.8	1	102.8	0	0	0	0	0	0	0	0	0	0	0	0;
	126265	0	-1.66	50	-20	1.05	105.8	1	102.8	0	0	0	0	0	0	0	0	0	0	0	0;
	126265	102.8	-1.66	50	-20	1.05	105.8	1	102.8	0	0	0	0	0	0	0	0	0	0	0	0;
	126265	102.8	-0.12	50	-20	1.05	105.8	1	102.8	0	0	0	0	0	0	0	0	0	0	0	0;
	126265	102.8	0.24	50	-20	1.05	105.8	1	102.8	0	0	0	0	0	0	0	0	0	0	0	0;
	126295	0	0	10	-5	0	21.18	1	87.6	0	0	0	0	0	0	0	0	0	0	0	0;
	126295	0	0	10	-5	0	21.18	1	87.6	0	0	0	0	0	0	0	0	0	0	0	0;
	126295	0	0	10	-5	0	21.18	1	87.6	0	0	0	0	0	0	0	0	0	0	0	0;
	128835	48.9	17.16	20.16	-12.32	1.05	55.4	1	48.9	0	0	0	0	0	0	0	0	0	0	0	0;
	128835	48.9	17.16	19.15	-11.7	1.05	55.4	1	48.9	0	0	0	0	0	0	0	0	0	0	0	0;
	128835	27	9.69	11.09	-6.78	1.05	28	1	27	0	0	0	0	0	0	0	0	0	0	0	0;
	126295	0	0	12.5	-12.5	1	100	1	25	7.77343962	0	0	0	0	0	0	0	0	0	0	0;
	126295	0	0	41.9	-4.8	0.99	200	1	55.7	15	0	0	0	0	0	0	0	0	0	0	0;
	126295	0	0	11	-11	1	100	1	22	6.84062687	0	0	0	0	0	0	0	0	0	0	0;
	126295	0	0	21.45	-21.45	1	100	1	42.9	13.3392224	0	0	0	0	0	0	0	0	0	0	0;
	126280	0	15.8	61.5	-44.2	1.03	125	1	121	0	0	0	0	0	0	0	0	0	0	0	0;
	126280	40	15.4	15.4	-11	1.03	125	1	40	14.2755175	0	0	0	0	0	0	0	0	0	0	0;
	126280	40	18.5	18.5	-13.3	1.03	125	1	40	14.2755175	0	0	0	0	0	0	0	0	0	0	0;
	126280	0	35.15	62	-44.5	1.05	125	1	121	0	0	0	0	0	0	0	0	0	0	0	0;
	126343	200	0	100	-100	1	100	1	200	48.2733138	0	0	0	0	0	0	0	0	0	0	0;
	126343	200	0	100	-100	1	100	1	200	48.2733138	0	0	0	0	0	0	0	0	0	0	0;
	126343	250	0	125	-125	1	100	1	250	53.2793718	0	0	0	0	0	0	0	0	0	0	0;
	126343	0	0	0	0	1	19.2	1	19.2	17.7116279	0	0	0	0	0	0	0	0	0	0	0;
	126343	0	0	0	0	1	38.4	1	24.1	23.7	0	0	0	0	0	0	0	0	0	0	0;
	126343	0.5	0	0.25	-0.25	1	100	1	0.5	0.032960727	0	0	0	0	0	0	0	0	0	0	0;
	126343	0.5	0	0.25	-0.25	1	100	1	0.5	0.032960727	0	0	0	0	0	0	0	0	0	0	0;
	126343	1.1	0	0.55	-0.55	1	100	1	1.1	0.072513599	0	0	0	0	0	0	0	0	0	0	0;
	126343	1.5	0	0.75	-0.75	1	100	1	1.5	0.098882181	0	0	0	0	0	0	0	0	0	0	0;
	126295	0	0	24	-1.4	1.02	87.5	1	73.4	30	0	0	0	0	0	0	0	0	0	0	0;
	126295	0	0	12	-2.02	1.01	87.5	1	68.8	0	0	0	0	0	0	0	0	0	0	0	0;
	126295	0	0	16.8	-5.3	1.02	87.5	1	72.7	51	0	0	0	0	0	0	0	0	0	0	0;
	126295	0	0	10.55	-10.55	1	100	1	21.1	6.56078304	0	0	0	0	0	0	0	0	0	0	0;
	126295	0	0	11	-11	1	100	1	22	6.84062687	0	0	0	0	0	0	0	0	0	0	0;
	126295	0	0	21.8	-3.4	0.98	87.5	1	69.6	0	0	0	0	0	0	0	0	0	0	0	0;
	128847	200.5	29.84	105.3	-47.31	1	176.47	1	200.5	41.2976313	0	0	0	0	0	0	0	0	0	0	0;
	128847	197.5	29.73	108	-61	1	220.59	1	197.5	40	0	0	0	0	0	0	0	0	0	0	0;
	128847	0	0	7.6	-4.46	1	21.18	1	134.3	41.4506173	0	0	0	0	0	0	0	0	0	0	0;
	128847	0	0	7.6	-4.46	1	21.18	1	134.3	38.8150289	0	0	0	0	0	0	0	0	0	0	0;
	128847	0	0	7.6	-4.46	1	21.18	1	134.3	38.8150289	0	0	0	0	0	0	0	0	0	0	0;
	128847	0	0	7.6	-4.46	1	21.18	1	134.3	42.2327044	0	0	0	0	0	0	0	0	0	0	0;
	128847	0	0	7.6	-4.46	1	21.18	1	134.3	39.2690058	0	0	0	0	0	0	0	0	0	0	0;
	128847	0	0	7.6	-4.46	1	21.18	1	134.3	39.7337278	0	0	0	0	0	0	0	0	0	0	0;
	128847	0	0	7.6	-4.46	1	21.18	1	134.3	39.5	0	0	0	0	0	0	0	0	0	0	0;
	128847	0	0	21.5	-2.98	0.97	41.5	1	161.1	58.0889423	0	0	0	0	0	0	0	0	0	0	0;
	128847	0	0	23.4	-4.42	0.97	41.5	1	161.1	61.1772152	0	0	0	0	0	0	0	0	0	0	0;
	128847	0	0	23.4	-4.42	0.97	41.5	1	161.1	62.2809278	0	0	0	0	0	0	0	0	0	0	0;
	128847	0	0	23	-4.23	0.97	41.5	1	161.1	58.6529126	0	0	0	0	0	0	0	0	0	0	0;
	128847	0	0	7.6	-16.8	0.99	71.18	1	60.5	5.65420561	0	0	0	0	0	0	0	0	0	0	0;
	128847	0.2	0	0.1	-0.1	1	100	1	0.2	0.013184291	0	0	0	0	0	0	0	0	0	0	0;
	128847	0.2	0	0.1	-0.1	1	100	1	0.2	0.013184291	0	0	0	0	0	0	0	0	0	0	0;
	128847	0.2	0	0.1	-0.1	1	100	1	0.2	0.013184291	0	0	0	0	0	0	0	0	0	0	0;
	128847	5.7	0	2.85	-2.85	1	100	1	5.7	1.77234424	0	0	0	0	0	0	0	0	0	0	0;
	128847	107.2	18.06	64.6	-14.51	1	140	1	107.2	20	0	0	0	0	0	0	0	0	0	0	0;
	128847	19.559096	11.4	19.6	-20.03	1.01	71.18	1	60.5	5.74003795	0	0	0	0	0	0	0	0	0	0	0;
	128847	0.2	0	0.1	-0.1	1	100	1	0.2	0.013184291	0	0	0	0	0	0	0	0	0	0	0;
	128847	0.2	0	0.1	-0.1	1	100	1	0.2	0.013184291	0	0	0	0	0	0	0	0	0	0	0;
	128847	0.7	0	0.35	-0.35	1	100	1	0.7	0.046145018	0	0	0	0	0	0	0	0	0	0	0;
	128835	0	24.73	36.6	-27.23	0.98	140	1	117	20	0	0	0	0	0	0	0	0	0	0	0;
	128835	0	26.53	34.1	-17.92	0.98	140	1	115.5	20	0	0	0	0	0	0	0	0	0	0	0;
	128835	0	13.75	27	-18	1.02	56	1	55	31.1909263	0	0	0	0	0	0	0	0	0	0	0;
	128835	0	13.75	27	-18	1.02	56	1	55	31.7919075	0	0	0	0	0	0	0	0	0	0	0;
	128835	60.5	0	30.25	-30.25	1	100	1	60.5	18.8117239	0	0	0	0	0	0	0	0	0	0	0;
	128835	60	0	30	-30	1	100	1	60	18.6562551	0	0	0	0	0	0	0	0	0	0	0;
	128847	78.6	21.46	37	-17	0.98	88.23	1	78.6	0	0	0	0	0	0	0	0	0	0	0	0;
	128847	1.1	0	0.55	-0.55	1	100	1	1.1	0.072513599	0	0	0	0	0	0	0	0	0	0	0;
	128847	1.1	0	0.55	-0.55	1	100	1	1.1	0.072513599	0	0	0	0	0	0	0	0	0	0	0;
	128847	0	0.96	19.3	-9.3	1	45.8	1	45.8	0	0	0	0	0	0	0	0	0	0	0	0;
	128847	0	0.96	5.7	-0.7	1	18	1	45.8	0	0	0	0	0	0	0	0	0	0	0	0;
	128847	60	2.89	28.8	-20.05	1.01	67.5	1	60	7.04225352	0	0	0	0	0	0	0	0	0	0	0;
	128847	1.3	0	0.65	-0.65	1	100	1	1.3	0.08569789	0	0	0	0	0	0	0	0	0	0	0;
	128847	36	-1.87	12.6	-14.81	1	41.2	1	36	0	0	0	0	0	0	0	0	0	0	0	0;
	128847	71.1	18.6	3.6	-1.7	0.98	16.2	1	71.1	0	0	0	0	0	0	0	0	0	0	0	0;
	128847	0	18.6	7.5	-3.6	0.98	33.7	1	71.1	0	0	0	0	0	0	0	0	0	0	0	0;
	128847	0	18.6	7.5	-3.6	0.98	33.7	1	71.1	0	0	0	0	0	0	0	0	0	0	0	0;
	128847	0.4	0	0.2	-0.2	1	100	1	0.4	0.026368582	0	0	0	0	0	0	0	0	0	0	0;
	128847	0	4.84	20	-20	0.99	71.18	1	60	6.62251656	0	0	0	0	0	0	0	0	0	0	0;
	128847	28	0	14	-14	1	100	1	28	8.71436208	0	0	0	0	0	0	0	0	0	0	0;
	128847	0	-15.47	127.1	-152.62	1.01	430.1	1	395.7	100	0	0	0	0	0	0	0	0	0	0	0;
	128847	393.7	-15.28	153.7	-134.31	1.01	430.1	1	393.7	103.14383	0	0	0	0	0	0	0	0	0	0	0;
	128847	399.7	26.86	148	-152.62	1.01	430.1	1	399.7	101.138664	0	0	0	0	0	0	0	0	0	0	0;
	128847	399.2	25.8	160	-136.54	1.01	430.1	1	399.2	100	0	0	0	0	0	0	0	0	0	0	0;
	128847	0	-3.55	8.3	-3.55	1.07	19	1	16	0	0	0	0	0	0	0	0	0	0	0	0;
	128847	1.3	0	0.65	-0.65	1	100	1	1.3	0.08569789	0	0	0	0	0	0	0	0	0	0	0;
	128847	1.3	0	0.65	-0.65	1	100	1	1.3	0.08569789	0	0	0	0	0	0	0	0	0	0	0;
	128847	12.5	0	6.25	-6.25	1	100	1	12.5	3.89034021	0	0	0	0	0	0	0	0	0	0	0;
	128847	50	6.87	19.5	-23.59	1.01	71.18	1	50	5.60538117	0	0	0	0	0	0	0	0	0	0	0;
	128847	50	6.87	19.6	-15.91	1.01	71.18	1	50	5.77367205	0	0	0	0	0	0	0	0	0	0	0;
	128847	82	0.48	24.7	-19.1	1	71.2	1	82	0	0	0	0	0	0	0	0	0	0	0	0;
	128847	82	0.48	5	-5	1	37.7	1	82	0	0	0	0	0	0	0	0	0	0	0	0;
	128847	0	0	18.8	-3.85	0.99	58.82	1	52.4	16.0736196	0	0	0	0	0	0	0	0	0	0	0;
...
	];

%% branch data
%	fbus	tbus	r	x	b	rateA	rateB	rateC	ratio	angle	status	angmin	angmax
mpc.branch = [
	1	2	0.0003	0.0166	0	450	450	450	1	0	1	-360	360;
];

%%-----  OPF Data  -----%%
%% generator cost data
%	1	startup	shutdown	n	x1	y1	...	xn	yn
%	2	startup	shutdown	n	c(n-1)	...	c0
mpc.gencost = [
	2	0	0	2	2	0;
	2	0	0	2	2	0;
	2	0	0	2	2	0;
	2	0	0	2	2	0;
	2	0	0	2	2	0;
	2	0	0	2	2	0;
	2	0	0	2	2	0;
	2	0	0	2	2	0;
	2	0	0	2	2	0;
	2	0	0	2	2	0;
	2	0	0	2	2	0;
	2	0	0	2	2	0;
	2	0	0	2	2	0;
	2	0	0	2	2	0;
	2	0	0	2	2	0;
	2	0	0	2	2	0;
	2	0	0	2	2	0;
	2	0	0	2	2	0;
	2	0	0	2	2	0;
	2	0	0	2	2	0;
	2	0	0	2	2	0;
	2	0	0	2	2	0;
	2	0	0	2	2	0;
	2	0	0	2	2	0;
	2	0	0	2	2	0;
	2	0	0	2	141.834154	0;
	2	0	0	2	141.545398	0;
	2	0	0	2	120.436968	0;
	2	0	0	2	2	0;
	2	0	0	2	117.547414	0;
	2	0	0	2	41.227449	0;
	2	0	0	2	2	0;
	2	0	0	2	41.3884844	0;
	2	0	0	2	56.9428026	0;
	2	0	0	2	58.4877859	0;
	2	0	0	2	58.1487353	0;
	2	0	0	2	38.1408005	0;
	2	0	0	2	41.297859	0;
	2	0	0	2	50.3074796	0;
	2	0	0	2	50.3074796	0;
	2	0	0	2	38.541248	0;
	2	0	0	2	51.6511045	0;
	2	0	0	2	2	0;
	2	0	0	2	2	0;
	2	0	0	2	2	0;
	2	0	0	2	2	0;
	2	0	0	2	2	0;
	2	0	0	2	2	0;
	2	0	0	2	2	0;
	2	0	0	2	2	0;
	2	0	0	2	2	0;
	2	0	0	2	2	0;
	2	0	0	2	2	0;
	2	0	0	2	2	0;
	2	0	0	2	2	0;
	2	0	0	2	2	0;
	2	0	0	2	2	0;
	2	0	0	2	2	0;
	2	0	0	2	2	0;
	2	0	0	2	2	0;
	2	0	0	2	2	0;
	2	0	0	2	2	0;
	2	0	0	2	2	0;
	2	0	0	2	2	0;
	2	0	0	2	2	0;
	2	0	0	2	2	0;
	2	0	0	2	2	0;
	2	0	0	2	2	0;
	2	0	0	2	2	0;
	2	0	0	2	2	0;
	2	0	0	2	2	0;
	2	0	0	2	2	0;
	2	0	0	2	2	0;
	2	0	0	2	2	0;
	2	0	0	2	2	0;
	2	0	0	2	2	0;
	2	0	0	2	2	0;
	2	0	0	2	2	0;
	2	0	0	2	2	0;
	2	0	0	2	2	0;
	2	0	0	2	2	0;
	2	0	0	2	2	0;
	2	0	0	2	2	0;
	2	0	0	2	2	0;
	2	0	0	2	2	0;
	2	0	0	2	2	0;
	2	0	0	2	2	0;
	2	0	0	2	2	0;
	2	0	0	2	2	0;
	2	0	0	2	2	0;
	2	0	0	2	2	0;
	2	0	0	2	2	0;
	2	0	0	2	2	0;
	2	0	0	2	2	0;
	2	0	0	2	2	0;
	2	0	0	2	2	0;
	2	0	0	2	2	0;
	2	0	0	2	2	0;
	2	0	0	2	76.9540859	0;
	2	0	0	2	77.7870432	0;
	2	0	0	2	63.601209	0;
	2	0	0	2	63.601209	0;
	2	0	0	2	2	0;
	2	0	0	2	19.297437	0;
	2	0	0	2	2	0;
	2	0	0	2	51.6511045	0;
	2	0	0	2	2	0;
	2	0	0	2	2	0;
	2	0	0	2	2	0;
	2	0	0	2	2	0;
	2	0	0	2	2	0;
	2	0	0	2	2	0;
	2	0	0	2	2	0;
	2	0	0	2	2	0;
	2	0	0	2	2	0;
	2	0	0	2	2	0;
	2	0	0	2	2	0;
	2	0	0	2	2	0;
	2	0	0	2	2	0;
	2	0	0	2	2	0;
	2	0	0	2	2	0;
	2	0	0	2	2	0;
	2	0	0	2	2	0;
	2	0	0	2	2	0;
	2	0	0	2	2	0;
	2	0	0	2	2	0;
	2	0	0	2	2	0;
	2	0	0	2	28.2706541	0;
	2	0	0	2	51.6511045	0;
	2	0	0	2	2	0;
	2	0	0	2	2	0;
	2	0	0	2	2	0;
	2	0	0	2	2	0;
	2	0	0	2	2	0;
	2	0	0	2	2	0;
	2	0	0	2	2	0;
	2	0	0	2	2	0;
	2	0	0	2	2	0;
	2	0	0	2	2	0;
	2	0	0	2	2	0;
	2	0	0	2	2	0;
	2	0	0	2	2	0;
	2	0	0	2	2	0;
	2	0	0	2	2	0;
	2	0	0	2	2	0;
	2	0	0	2	2	0;
	2	0	0	2	2	0;
	2	0	0	2	2	0;
	2	0	0	2	63.601209	0;
	2	0	0	2	2	0;
	2	0	0	2	2	0;
	2	0	0	2	2	0;
	2	0	0	2	2	0;
	2	0	0	2	2	0;
	2	0	0	2	2	0;
	2	0	0	2	2	0;
	2	0	0	2	2	0;
	2	0	0	2	2	0;
	2	0	0	2	2	0;
	2	0	0	2	2	0;
	2	0	0	2	42.0539221	0;
	2	0	0	2	2	0;
	2	0	0	2	2	0;
	2	0	0	2	2	0;
	2	0	0	2	2	0;
	2	0	0	2	2	0;
	2	0	0	2	2	0;
	2	0	0	2	2	0;
	2	0	0	2	2	0;
	2	0	0	2	2	0;
	2	0	0	2	2	0;
	2	0	0	2	2	0;
	2	0	0	2	2	0;
	2	0	0	2	2	0;
	2	0	0	2	2	0;
	2	0	0	2	2	0;
	2	0	0	2	2	0;
	2	0	0	2	2	0;
	2	0	0	2	2	0;
	2	0	0	2	2	0;
	2	0	0	2	2	0;
	2	0	0	2	2	0;
	2	0	0	2	2	0;
	2	0	0	2	2	0;
	2	0	0	2	2	0;
	2	0	0	2	2	0;
	2	0	0	2	2	0;
	2	0	0	2	2	0;
	2	0	0	2	2	0;
	2	0	0	2	2	0;
	2	0	0	2	2	0;
	2	0	0	2	2	0;
	2	0	0	2	2	0;
	2	0	0	2	2	0;
	2	0	0	2	2	0;
	2	0	0	2	2	0;
	2	0	0	2	2	0;
	2	0	0	2	2	0;
	2	0	0	2	2	0;
	2	0	0	2	2	0;
...
];

%%-----  DC Line Data  -----%%
%	fbus	tbus	status	Pf	Pt	Qf	Qt	Vf	Vt	Pmin	Pmax	QminF	QmaxF	QminT	QmaxT	loss0	loss1
mpc.dcline = [
	107326	107324	1	198.7	198.7	0	0	1	1	0	228.505	0	0	0	0	0	0;
	180326	180526	1	634.38	634.38	0	0	1	1	0	729.537	0	0	0	0	0	0;
	180326	180526	1	634.38	634.38	0	0	1	1	0	729.537	0	0	0	0	0	0;
	180419	181319	1	360	360	0	0	1	1	0	414	0	0	0	0	0	0;
	180519	181419	1	360	360	0	0	1	1	0	414	0	0	0	0	0	0;
	180526	180326	0	0	0	0	0	1	1	0	0	0	0	0	0	0	0;
	180526	180326	0	0	0	0	0	1	1	0	0	0	0	0	0	0	0;
	180575	180675	1	393.75	393.75	0	0	1	1	0	452.8125	0	0	0	0	0	0;
	180675	180575	0	0	0	0	0	1	1	0	0	0	0	0	0	0	0;
	181020	114072	1	750	750	0	0	1	1	0	862.5	0	0	0	0	0	0;
	181020	114071	1	750	750	0	0	1	1	0	862.5	0	0	0	0	0	0;
	181020	182007	1	42.78	42.78	0	0	1	1	0	49.197	0	0	0	0	0	0;
	181020	182007	1	42.78	42.78	0	0	1	1	0	49.197	0	0	0	0	0	0;
	181319	180419	0	0	0	0	0	1	1	0	0	0	0	0	0	0	0;
	181419	180519	0	0	0	0	0	1	1	0	0	0	0	0	0	0	0;
	190490	190494	1	150	150	0	0	1	1	0	172.5	0	0	0	0	0	0;
	190493	190497	0	0	0	0	0	1	1	0	0	0	0	0	0	0	0;
	190494	190490	0	0	0	0	0	1	1	0	0	0	0	0	0	0	0;
	190497	190493	1	150	150	0	0	1	1	0	172.5	0	0	0	0	0	0;
	206305	128842	1	672	672	0	0	1	1	0	772.8	0	0	0	0	0	0;
	615600	615353	1	557	557	0	0	1	1	0	640.55	0	0	0	0	0	0;
	615600	615353	1	557	557	0	0	1	1	0	640.55	0	0	0	0	0	0;
	657756	608615	1	237.5	237.5	0	0	1	1	0	273.125	0	0	0	0	0	0;
	657756	608615	1	237.5	237.5	0	0	1	1	0	273.125	0	0	0	0	0	0;
];

mpc.genfuel = {
	'hydro';
	'hydro';
	'hydro';
	'unknown';
	'hydro';
	'hydro';
	'hydro';
	'wind';
	'wind';
	'hydro';
	'hydro';
	'hydro';
	'hydro';
	'hydro';
	'hydro';
	'hydro';
	'hydro';
	'hydro';
	'unknown';
	'hydro';
	'hydro';
	'hydro';
	'hydro';
	'hydro';
	'hydro';
	'oil';
	'oil';
	'oil';
	'hydro';
	'oil';
	'biomass';
	'wind';
	'biomass';
	'ng';
	'ng';
	'ng';
	'ng';
	'ng';
	'ng';
	'ng';
	'ng';
	'ng';
	'hydro';
	'hydro';
	'hydro';
	'hydro';
	'hydro';
	'hydro';
	'hydro';
	'hydro';
	'hydro';
	'hydro';
	'hydro';
	'hydro';
	'hydro';
	'hydro';
	'hydro';
	'hydro';
	'hydro';
	'hydro';
	'hydro';
	'hydro';
	'hydro';
	'hydro';
	'hydro';
	'hydro';
	'hydro';
	'unknown';
	'hydro';
	'hydro';
	'biomass';
	'biomass';
	'wind';
	'hydro';
	'hydro';
	'hydro';
	'hydro';
	'hydro';
	'hydro';
	'hydro';
	'hydro';
	'hydro';
	'hydro';
	'hydro';
	'hydro';
	'hydro';
	'hydro';
	'hydro';
	'hydro';
	'hydro';
	'hydro';
	'hydro';
	'hydro';
	'hydro';
	'hydro';
	'hydro';
	'hydro';
	'hydro';
	'biomass';
	'biomass';
	'biomass';
	'biomass';
	'hydro';
	'biomass';
	'biomass';
	'ng';
	'unknown';
	'hydro';
	'hydro';
	'hydro';
	'hydro';
	'unknown';
	'biomass';
	'biomass';
	'hydro';
	'hydro';
	'hydro';
	'hydro';
	'hydro';
	'hydro';
	'hydro';
	'hydro';
	'biomass';
	'biomass';
	'hydro';
	'hydro';
	'hydro';
	'coal';
	'ng';
	'biomass';
	'hydro';
	'hydro';
	'hydro';
	'hydro';
	'hydro';
	'hydro';
	'hydro';
	'hydro';
	'hydro';
	'hydro';
	'hydro';
	'hydro';
	'hydro';
	'hydro';
	'hydro';
	'hydro';
	'hydro';
	'hydro';
	'biomass';
	'hydro';
	'hydro';
	'hydro';
	'hydro';
	'hydro';
	'hydro';
	'hydro';
	'hydro';
	'hydro';
	'hydro';
	'hydro';
	'biomass';
	'hydro';
	'hydro';
	'hydro';
	'hydro';
	'hydro';
	'hydro';
	'refuse';
	'unknown';
	'unknown';
	'hydro';
	'hydro';
	'hydro';
	'hydro';
	'hydro';
	'hydro';
	'hydro';
	'hydro';
	'hydro';
	'hydro';
	'hydro';
	'hydro';
	'hydro';
	'hydro';
	'hydro';
	'hydro';
	'refuse';
	'hydro';
	'hydro';
	'hydro';
	'hydro';
	'hydro';
	'hydro';
	'hydro';
	'hydro';
	'hydro';
	'hydro';
	'hydro';
	'hydro';
	'hydro';
	'hydro';
	'hydro';
	'hydro';
	'hydro';
	'hydro';
	'hydro';
	'hydro';
	'hydro';
	'hydro';
	'hydro';
	'hydro';
	'hydro';
	'hydro';
	'hydro';
	'wind';
	'refuse';
	'hydro';
	'hydro';
	'hydro';
	'hydro';
	'hydro';
	'oil';
	'hydro';
	'hydro';
	'hydro';
	'hydro';
	'hydro';
	'hydro';
	'hydro';
	'hydro';
	'hydro';
	'hydro';
	'hydro';
	'wind';
	'hydro';
	'hydro';
	'ng';
	'ng';
	'ng';
	'refuse';
	'hydro';
	'biomass';
	'hydro';
	'hydro';
	'hydro';
	'hydro';
	'hydro';
	'hydro';
	'unknown';
	'unknown';
	'unknown';
	'biomass';
	'hydro';
	'hydro';
	'hydro';
	'hydro';
	'hydro';
	'hydro';
	'biomass';
	'biomass';
	'biomass';
	'biomass';
	'hydro';
	'hydro';
	'hydro';
	'hydro';
	'hydro';
	'hydro';
	'hydro';
	'hydro';
	'hydro';
	'unknown';
	'biomass';
	'hydro';
	'hydro';
	'hydro';
	'hydro';
	'hydro';
	'hydro';
	'hydro';
	'hydro';
	'ng';
	'hydro';
	'hydro';
	'hydro';
	'hydro';
	'hydro';
	'hydro';
	'hydro';
	'hydro';
	'hydro';
	'hydro';
	'hydro';
	'wind';
	'hydro';
	'hydro';
	'hydro';
	'hydro';
	'unknown';
	'unknown';
	'unknown';
	'unknown';
	'wind';
	'hydro';
	'hydro';
	'hydro';
	'hydro';
	'hydro';
	'hydro';
	'hydro';
	'biomass';
	'biomass';
	'hydro';
	'biomass';
	'hydro';
	'hydro';
	'hydro';
	'hydro';
	'hydro';
	'unknown';
	'hydro';
	'hydro';
	'hydro';
	'hydro';
	'hydro';
	'unknown';
	'unknown';
	'hydro';
	'hydro';
	'hydro';
	'hydro';
	'unknown';
	'hydro';
	'hydro';
	'hydro';
	'hydro';
	'hydro';
	'hydro';
	'hydro';
	'hydro';
	'unknown';
	'hydro';
	'hydro';
	'hydro';
	'hydro';
	'hydro';
	'hydro';
	'hydro';
	'hydro';
	'hydro';
	'hydro';
	'hydro';
	'hydro';
	'hydro';
	'hydro';
	'hydro';
	'hydro';
	'hydro';
	'hydro';
	'hydro';
	'unknown';
	'biomass';
	'biomass';
	'oil';
	'biomass';
	'biomass';
	'unknown';
	'unknown';
	'hydro';
	'hydro';
	'hydro';
	'unknown';
	'unknown';
	'hydro';
	'hydro';
	'hydro';
	'hydro';
	'unknown';
	'unknown';
	'hydro';
	'hydro';
	'hydro';
	'hydro';
	'hydro';
	'hydro';
	'hydro';
	'hydro';
	'hydro';
	'hydro';
	'hydro';
	'hydro';
	'hydro';
	'hydro';
	'hydro';
	'biomass';
	'wind';
	'unknown';
	'unknown';
	'unknown';
	'hydro';
	'hydro';
	'hydro';
	'hydro';
	'hydro';
	'hydro';
	'refuse';
	'hydro';
	'hydro';
	'hydro';
	'hydro';
	'hydro';
	'coal';
	'coal';
	'oil';
	'oil';
	'biomass';
	'biomass';
	'biomass';
	'biomass';
	'biomass';
	'biomass';
	'coal';
	'biomass';
	'coal';
	'oil';
	'hydro';
	'hydro';
	'hydro';
	'ng';
	'ng';
	'ng';
	'ng';
	'unknown';
	'unknown';
	'unknown';
	'unknown';
	'unknown';
	'unknown';
	'wind';
	'ng';
	'biomass';
	'biomass';
	'solar';
	'nuclear';
	'ng';
	'hydro';
	'hydro';
	'hydro';
	'hydro';
	'hydro';
	'hydro';
	'hydro';
	'hydro';
	'hydro';
	'biomass';
	'biomass';
	'hydro';
	'hydro';
	'hydro';
	'hydro';
	'hydro';
	'hydro';
	'hydro';
	'hydro';
	'hydro';
	'hydro';
	'hydro';
	'hydro';
	'hydro';
	'hydro';
	'hydro';
	'hydro';
	'ng';
	'ng';
	'hydro';
	'hydro';
	'hydro';
	'hydro';
	'hydro';
	'hydro';
	'hydro';
	'refuse';
	'hydro';
	'hydro';
	'hydro';
	'unknown';
	'hydro';
	'hydro';
	'hydro';
	'unknown';
	'hydro';
	'hydro';
	'hydro';
	'hydro';
	'hydro';
	'hydro';
	'hydro';
	'hydro';
	'hydro';
	'hydro';
	'hydro';
	'hydro';
	'hydro';
	'hydro';
	'hydro';
	'hydro';
	'hydro';
	'hydro';
	'hydro';
	'hydro';
	'hydro';
	'hydro';
	'hydro';
	'hydro';
	'hydro';
	'oil';
	'unknown';
	'hydro';
	'hydro';
	'hydro';
	'biomass';
	'hydro';
	'unknown';
	'hydro';
	'hydro';
	'hydro';
	'oil';
	'oil';
	'unknown';
	'unknown';
	'wind';
	'hydro';
	'hydro';
	'hydro';
	'unknown';
	'hydro';
	'solar';
	'hydro';
	'hydro';
	'hydro';
	'hydro';
	'hydro';
	'hydro';
	'hydro';
	'hydro';
	'hydro';
	'hydro';
	'hydro';
	'hydro';
	'hydro';
	'hydro';
	'hydro';
	'hydro';
	'oil';
	'oil';
	'unknown';
	'hydro';
	'unknown';
	'hydro';
	'hydro';
	'hydro';
	'hydro';
	'wind';
	'storage';
	'nuclear';
	'biomass';
	'biomass';
	'hydro';
	'hydro';
	'unknown';
	'unknown';
	'hydro';
	'hydro';
	'biomass';
	'hydro';
	'hydro';
	'biomass';
	'hydro';
	'hydro';
	'biomass';
	'hydro';
	'hydro';
	'hydro';
	'hydro';
	'hydro';
	'hydro';
	'hydro';
	'hydro';
	'hydro';
	'hydro';
	'hydro';
	'hydro';
	'hydro';
	'hydro';
	'hydro';
	'hydro';
	'hydro';
	'hydro';
	'hydro';
	'hydro';
	'hydro';
	'unknown';
	'hydro';
	'hydro';
	'hydro';
	'unknown';
	'unknown';
	'oil';
	'oil';
	'oil';
	'ng';
	'ng';
	'ng';
	'ng';
	'oil';
	'oil';
	'oil';
	'unknown';
	'unknown';
	'unknown';
	'unknown';
	'unknown';
	'ng';
	'oil';
	'ng';
	'ng';
	'ng';
	'ng';
	'ng';
	'ng';
	'oil';
	'ng';
	'ng';
	'ng';
	'ng';
	'ng';
	'wind';
	'unknown';
	'unknown';
	'nuclear';
	'ng';
	'hydro';
	'hydro';
	'hydro';
	'hydro';
	'ng';
	'ng';
	'ng';
	'ng';
	'ng';
	'ng';
	'unknown';
	'unknown';
	'unknown';
	'ng';
	'ng';
	'ng';
	'ng';
	'ng';
	'oil';
	'ng';
	'ng';
	'refuse';
	'refuse';
	'oil';
	'oil';
	'ng';
	'ng';
	'ng';
	'hydro';
	'hydro';
	'unknown';
	'ng';
	'ng';
	'ng';
	'solar';
	'solar';
	'unknown';
	'unknown';
	'unknown';
	'ng';
	'unknown';
	'solar';
	'unknown';
	'unknown';
	'wind';
	'wind';
	'ng';
	'ng';
	'ng';
	'biomass';
	'unknown';
	'ng';
	'ng';
	'biomass';
	'biomass';
	'hydro';
	'hydro';
	'hydro';
	'hydro';
	'hydro';
	'hydro';
	'hydro';
	'hydro';
	'hydro';
	'hydro';
	'hydro';
	'hydro';
	'hydro';
	'hydro';
	'solar';
	'biomass';
	'hydro';
	'hydro';
	'biomass';
	'biomass';
	'biomass';
	'refuse';
	'ng';
	'ng';
	'ng';
	'ng';
	'ng';
	'hydro';
	'hydro';
	'refuse';
	'ng';
	'ng';
	'biomass';
	'wind';
	'ng';
	'hydro';
	'hydro';
	'hydro';
	'hydro';
	'hydro';
	'hydro';
	'hydro';
	'unknown';
	'unknown';
	'unknown';
	'unknown';
	'unknown';
	'unknown';
	'unknown';
	'unknown';
	'unknown';
	'unknown';
	'storage';
	'hydro';
	'hydro';
	'storage';
	'ng';
	'ng';
	'hydro';
	'hydro';
	'hydro';
	'hydro';
	'hydro';
	'ng';
	'ng';
	'refuse';
	'refuse';
	'unknown';
	'ng';
	'ng';
	'ng';
	'ng';
	'ng';
	'ng';
	'ng';
	'unknown';
	'refuse';
	'coal';
	'coal';
	'coal';
	'coal';
	'ng';
	'ng';
	'ng';
	'ng';
	'ng';
	'ng';
	'ng';
	'ng';
	'coal';
	'coal';
	'unknown';
	'unknown';
	'unknown';
	'coal';
	'ng';
	'ng';
	'coal';
	'ng';
	'ng';
	'oil';
	'ng';
	'oil';
	'ng';
	'unknown';
	'unknown';
	'unknown';
	'solar';
	'unknown';
	'wind';
	'unknown';
	'unknown';
	'unknown';
	'unknown';
	'unknown';
	'biomass';
	'biomass';
	'biomass';
	'biomass';
	'biomass';
	'biomass';
	'wind';
	'wind';
	'wind';
	'wind';
	'ng';
	'unknown';
	'unknown';
	'unknown';
	'unknown';
	'unknown';
	'unknown';
	'unknown';
	'unknown';
	'unknown';
	'unknown';
	'biomass';
	'ng';
	'ng';
	'hydro';
	'unknown';
	'hydro';
	'hydro';
	'hydro';
	'hydro';
	'hydro';
	'hydro';
	'hydro';
	'hydro';
	'hydro';
	'biomass';
	'solar';
	'hydro';
	'solar';
	'hydro';
	'unknown';
	'unknown';
	'hydro';
	'hydro';
	'hydro';
	'hydro';
	'hydro';
	'hydro';
	'hydro';
	'hydro';
	'biomass';
	'biomass';
	'biomass';
	'hydro';
	'hydro';
	'hydro';
	'ng';
	'ng';
	'ng';
	'unknown';
	'unknown';
	'oil';
	'oil';
	'hydro';
	'hydro';
	'hydro';
	'ng';
	'ng';
	'ng';
	'hydro';
	'hydro';
	'hydro';
	'unknown';
	'unknown';
	'unknown';
	'ng';
	'ng';
	'ng';
	'ng';
	'refuse';
	'ng';
	'ng';
	'refuse';
	'ng';
	'coal';
	'hydro';
	'hydro';
	'hydro';
	'hydro';
	'hydro';
	'hydro';
	'ng';
	'ng';
	'ng';
	'hydro';
	'hydro';
	'coal';
	'hydro';
	'hydro';
	'hydro';
	'hydro';
	'hydro';
	'hydro';
	'hydro';
	'hydro';
	'hydro';
	'hydro';
	'hydro';
	'hydro';
	'hydro';
	'hydro';
	'hydro';
	'hydro';
	'hydro';
	'hydro';
	'oil';
	'ng';
	'ng';
	'ng';
	'ng';
	'wind';
	'unknown';
	'ng';
	'ng';
	'hydro';
	'hydro';
	'solar';
	'coal';
	'ng';
	'ng';
	'ng';
	'hydro';
	'hydro';
	'coal';
	'ng';
	'ng';
	'ng';
	'ng';
	'ng';
	'ng';
	'ng';
	'ng';
	'ng';
	'ng';
	'ng';
	'ng';
	'ng';
	'unknown';
	'unknown';
	'unknown';
	'unknown';
	'unknown';
	'ng';
	'ng';
	'ng';
	'ng';
	'ng';
	'biomass';
	'biomass';
	'biomass';
	'biomass';
	'biomass';
	'biomass';
	'biomass';
	'biomass';
	'biomass';
	'biomass';
	'biomass';
	'biomass';
	'biomass';
	'hydro';
	'hydro';
	'ng';
	'unknown';
	'ng';
	'hydro';
	'hydro';
	'ng';
	'ng';
	'ng';
	'ng';
	'ng';
	'unknown';
	'unknown';
	'unknown';
	'unknown';
	'unknown';
	'unknown';
	'refuse';
	'ng';
	'refuse';
	'hydro';
	'hydro';
	'oil';
	'unknown';
	'hydro';
	'hydro';
	'hydro';
	'hydro';
	'hydro';
	'hydro';
	'hydro';
	'ng';
	'ng';
	'oil';
	'oil';
	'oil';
	'oil';
	'unknown';
	'nuclear';
	'unknown';
	'nuclear';
	'unknown';
	'unknown';
	'unknown';
	'unknown';
	'unknown';
	'unknown';
	'unknown';
	'unknown';
	'unknown';
	'unknown';
	'unknown';
	'ng';
	'refuse';
	'ng';
	'unknown';
	'hydro';
	'hydro';
	'ng';
	'ng';
	'unknown';
	'unknown';
	'unknown';
	'biomass';
	'ng';
	'unknown';
	'unknown';
	'unknown';
	'unknown';
	'ng';
	'ng';
	'biomass';
	'biomass';
	'ng';
	'ng';
	'ng';
	'ng';
	'ng';
	'unknown';
	'ng';
	'ng';
	'ng';
	'oil';
	'unknown';
	'unknown';
	'unknown';
	'unknown';
	'unknown';
	'hydro';
	'hydro';
	'hydro';
	'refuse';
	'unknown';
	'refuse';
	'ng';
	'ng';
	'ng';
	'ng';
	'ng';
	'oil';
	'oil';
	'oil';
	'oil';
	'oil';
	'ng';
	'ng';
	'ng';
	'ng';
	'unknown';
	'ng';
	'ng';
	'unknown';
	'ng';
	'ng';
	'ng';
	'ng';
	'ng';
	'hydro';
	'hydro';
	'hydro';
	'hydro';
	'hydro';
	'hydro';
	'hydro';
	'hydro';
	'hydro';
	'hydro';
	'biomass';
	'biomass';
	'hydro';
	'hydro';
	'hydro';
	'ng';
	'unknown';
	'ng';
	'hydro';
	'unknown';
	'unknown';
	'ng';
	'unknown';
	'unknown';
	'oil';
	'oil';
	'oil';
	'oil';
	'oil';
	'oil';
	'oil';
	'oil';
	'oil';
	'oil';
	'oil';
	'hydro';
	'hydro';
	'hydro';
	'hydro';
	'ng';
	'ng';
	'oil';
	'refuse';
	'ng';
	'ng';
	'coal';
	'coal';
	'oil';
	'solar';
	'solar';
	'ng';
	'hydro';
	'hydro';
	'biomass';
	'unknown';
	'hydro';
	'ng';
	'unknown';
	'hydro';
	'ng';
	'ng';
	'coal';
	'coal';
	'coal';
	'coal';
	'refuse';
	'oil';
	'oil';
	'hydro';
	'hydro';
	'hydro';
	'hydro';
	'hydro';
	'hydro';
	'ng';
	'ng';
	'ng';
	'ng';
	'ng';
	'ng';
	'unknown';
	'ng';
	'ng';
	'ng';
	'unknown';
	'unknown';
	'ng';
	'ng';
	'ng';
	'ng';
	'unknown';
	'unknown';
	'ng';
	'ng';
	'ng';
	'unknown';
	'unknown';
	'ng';
	'ng';
	'ng';
	'unknown';
	'unknown';
	'ng';
	'ng';
	'ng';
	'ng';
	'ng';
	'ng';
	'ng';
	'ng';
	'ng';
	'ng';
	'ng';
	'ng';
	'ng';
	'ng';
	'ng';
	'ng';
	'ng';
	'ng';
	'ng';
	'ng';
	'ng';
	'ng';
	'ng';
	'ng';
	'ng';
	'ng';
	'ng';
	'ng';
	'ng';
	'ng';
	'ng';
	'ng';
	'unknown';
	'ng';
	'ng';
	'ng';
	'ng';
	'ng';
	'ng';
	'unknown';
	'refuse';
	'ng';
	'ng';
	'ng';
	'ng';
	'ng';
	'ng';
	'ng';
	'unknown';
	'unknown';
	'oil';
	'oil';
	'ng';
	'ng';
	'nuclear';
	'ng';
	'ng';
	'ng';
	'ng';
	'ng';
	'unknown';
	'unknown';
	'unknown';
	'ng';
	'ng';
	'ng';
	'ng';
	'ng';
	'ng';
	'ng';
	'ng';
	'ng';
	'ng';
	'ng';
	'ng';
	'ng';
	'ng';
	'ng';
	'ng';
	'ng';
	'ng';
	'oil';
	'oil';
	'oil';
	'ng';
	'ng';
	'ng';
	'ng';
	'ng';
	'ng';
	'ng';
	'ng';
	'ng';
	'ng';
	'ng';
	'ng';
	'ng';
	'ng';
	'ng';
	'ng';
	'ng';
	'ng';
	'ng';
	'ng';
	'ng';
	'ng';
	'ng';
	'ng';
	'ng';
	'ng';
	'ng';
	'ng';
	'ng';
	'ng';
	'ng';
	'ng';
	'ng';
	'ng';
	'ng';
	'ng';
	'ng';
	'ng';
	'ng';
	'oil';
	'ng';
	'ng';
	'ng';
	'ng';
	'ng';
	'ng';
	'ng';
	'ng';
	'biomass';
	'ng';
	'ng';
	'oil';
	'oil';
	'ng';
	'ng';
	'refuse';
	'ng';
	'ng';
	'ng';
	'ng';
	'ng';
	'unknown';
	'ng';
	'ng';
	'ng';
	'ng';
	'unknown';
	'ng';
	'refuse';
	'ng';
	'ng';
	'ng';
	'ng';
	'oil';
	'ng';
	'ng';
	'refuse';
	'ng';
	'ng';
	'ng';
	'ng';
	'oil';
	'ng';
	'ng';
	'unknown';
	'unknown';
	'unknown';
	'ng';
	'solar';
	'oil';
	'oil';
	'oil';
	'oil';
	'oil';
	'oil';
	'oil';
	'oil';
	'oil';
	'oil';
	'ng';
	'ng';
	'ng';
	'ng';
	'ng';
	'ng';
	'oil';
	'oil';
	'oil';
	'oil';
	'oil';
	'biomass';
	'oil';
	'oil';
	'oil';
	'oil';
	'oil';
	'oil';
	'wind';
	'wind';
	'wind';
	'coal';
	'wind';
	'ng';
	'coal';
	'biomass';
	'hydro';
	'hydro';
	'hydro';
	'hydro';
	'hydro';
	'storage';
	'wind';
	'ng';
	'unknown';
	'ng';
	'ng';
	'unknown';
	'hydro';
	'wind';
	'coal';
	'biomass';
	'biomass';
	'biomass';
	'biomass';
	'biomass';
	'biomass';
	'hydro';
	'biomass';
	'biomass';
	'biomass';
	'biomass';
	'biomass';
	'biomass';
	'biomass';
	'biomass';
	'biomass';
	'biomass';
	'biomass';
	'biomass';
	'hydro';
	'coal';
	'ng';
	'ng';
	'hydro';
	'hydro';
	'ng';
	'ng';
	'ng';
	'ng';
	'coal';
	'coal';
	'coal';
	'hydro';
	'hydro';
	'hydro';
	'ng';
	'ng';
	'ng';
	'ng';
	'ng';
	'hydro';
	'hydro';
	'hydro';
	'hydro';
	'hydro';
	'hydro';
	'hydro';
	'hydro';
	'hydro';
	'hydro';
	'hydro';
	'hydro';
	'hydro';
	'hydro';
	'hydro';
	'hydro';
	'hydro';
	'hydro';
	'hydro';
	'hydro';
	'hydro';
	'hydro';
	'hydro';
	'biomass';
	'hydro';
	'ng';
	'ng';
	'ng';
	'biomass';
	'biomass';
	'biomass';
	'biomass';
	'biomass';
	'biomass';
	'biomass';
	'unknown';
	'coal';
	'coal';
	'coal';
	'coal';
	'biomass';
	'biomass';
	'biomass';
	'biomass';
	'ng';
	'ng';
	'ng';
	'ng';
	'ng';
	'coal';
	'coal';
	'hydro';
	'unknown';
	'ng';
	'ng';
	'hydro';
	'biomass';
	'biomass';
	'biomass';
	'hydro';
	'hydro';
	'ng';
	'coal';
	'ng';
	'ng';
	'coal';
	'biomass';
	'biomass';
	'hydro';
	'hydro';
	'hydro';
	'hydro';
	'refuse';
	'refuse';
	'hydro';
	'hydro';
	'hydro';
	'hydro';
	'hydro';
	'hydro';
	'hydro';
	'hydro';
	'hydro';
	'hydro';
	'hydro';
	'hydro';
	'hydro';
	'hydro';
	'hydro';
	'hydro';
	'hydro';
	'biomass';
	'hydro';
	'hydro';
	'hydro';
	'hydro';
	'hydro';
	'hydro';
	'hydro';
	'hydro';
	'wind';
	'nuclear';
	'nuclear';
	'oil';
	'oil';
	'refuse';
	'coal';
	'ng';
	'ng';
	'hydro';
	'hydro';
	'hydro';
	'wind';
	'ng';
	'ng';
	'ng';
	'ng';
	'ng';
	'ng';
	'ng';
	'ng';
	'ng';
	'unknown';
	'ng';
	'ng';
	'hydro';
	'hydro';
	'hydro';
	'hydro';
	'hydro';
	'hydro';
	'hydro';
	'hydro';
	'hydro';
	'ng';
	'ng';
	'hydro';
	'hydro';
	'biomass';
	'hydro';
	'coal';
	'hydro';
	'hydro';
	'hydro';
	'wind';
	'hydro';
	'hydro';
	'hydro';
	'hydro';
	'hydro';
	'hydro';
	'hydro';
	'hydro';
	'hydro';
	'hydro';
	'hydro';
	'hydro';
	'hydro';
	'hydro';
	'hydro';
	'hydro';
	'hydro';
	'hydro';
	'hydro';
	'hydro';
	'hydro';
	'hydro';
	'hydro';
	'hydro';
	'hydro';
	'hydro';
	'hydro';
	'hydro';
	'hydro';
	'hydro';
	'hydro';
	'ng';
	'ng';
	'hydro';
	'hydro';
	'hydro';
	'biomass';
	'hydro';
	'hydro';
	'hydro';
	'hydro';
	'hydro';
	'hydro';
	'hydro';
	'hydro';
	'hydro';
	'hydro';
	'hydro';
	'hydro';
	'hydro';
	'hydro';
	'hydro';
	'hydro';
	'hydro';
	'hydro';
	'hydro';
	'hydro';
	'hydro';
	'hydro';
	'hydro';
	'hydro';
	'hydro';
	'hydro';
	'hydro';
	'hydro';
	'hydro';
	'hydro';
	'hydro';
	'hydro';
	'hydro';
	'hydro';
	'hydro';
	'hydro';
	'hydro';
	'hydro';
	'hydro';
	'hydro';
	'hydro';
	'hydro';
	'hydro';
	'hydro';
	'hydro';
	'hydro';
	'hydro';
	'hydro';
	'hydro';
	'hydro';
	'hydro';
	'hydro';
	'hydro';
	'hydro';
	'hydro';
	'hydro';
	'hydro';
	'hydro';
	'hydro';
	'hydro';
	'hydro';
	'hydro';
	'hydro';
	'hydro';
	'hydro';
	'hydro';
	'hydro';
	'hydro';
	'hydro';
	'hydro';
	'hydro';
	'hydro';
	'hydro';
	'hydro';
	'hydro';
	'hydro';
	'hydro';
	'hydro';
	'hydro';
	'hydro';
	'hydro';
	'hydro';
	'hydro';
	'hydro';
	'ng';
	'ng';
	'oil';
	'hydro';
	'hydro';
	'unknown';
	'hydro';
	'hydro';
	'hydro';
	'hydro';
	'hydro';
	'hydro';
	'hydro';
	'hydro';
	'hydro';
	'hydro';
	'hydro';
	'hydro';
	'hydro';
	'hydro';
	'hydro';
	'hydro';
	'hydro';
	'hydro';
	'hydro';
	'ng';
	'ng';
	'ng';
	'ng';
	'ng';
	'ng';
	'ng';
	'ng';
	'ng';
	'ng';
	'hydro';
	'ng';
	'ng';
	'ng';
	'hydro';
	'biomass';
	'hydro';
	'hydro';
	'hydro';
	'hydro';
	'hydro';
	'hydro';
	'hydro';
	'hydro';
	'ng';
	'ng';
	'ng';
	'ng';
	'ng';
	'ng';
	'ng';
	'ng';
	'hydro';
	'ng';
	'biomass';
	'hydro';
	'hydro';
	'hydro';
	'hydro';
	'hydro';
	'unknown';
	'unknown';
	'unknown';
	'hydro';
	'hydro';
	'hydro';
	'unknown';
	'hydro';
	'hydro';
	'biomass';
	'hydro';
	'hydro';
	'hydro';
	'hydro';
	'hydro';
	'wind';
	'hydro';
	'wind';
	'hydro';
	'hydro';
	'hydro';
	'hydro';
	'hydro';
	'hydro';
	'hydro';
	'hydro';
	'hydro';
	'hydro';
	'hydro';
	'hydro';
	'hydro';
	'hydro';
	'hydro';
	'hydro';
	'hydro';
	'hydro';
	'hydro';
	'hydro';
	'hydro';
	'refuse';
	'hydro';
	'hydro';
	'hydro';
	'hydro';
	'biomass';
	'hydro';
	'hydro';
	'hydro';
	'hydro';
	'hydro';
	'hydro';
	'hydro';
	'hydro';
	'hydro';
	'biomass';
	'hydro';
	'hydro';
	'hydro';
	'hydro';
	'hydro';
	'ng';
	'ng';
	'hydro';
	'hydro';
	'ng';
	'ng';
	'wind';
	'biomass';
	'hydro';
	'oil';
	'hydro';
	'hydro';
	'biomass';
	'biomass';
	'biomass';
	'oil';
	'ng';
	'ng';
	'ng';
	'hydro';
	'hydro';
	'hydro';
	'hydro';
	'hydro';
	'hydro';
	'hydro';
	'wind';
	'hydro';
	'ng';
	'ng';
	'hydro';
	'hydro';
	'biomass';
	'biomass';
	'biomass';
	'biomass';
	'biomass';
	'biomass';
	'biomass';
	'biomass';
	'biomass';
	'biomass';
	'biomass';
	'biomass';
	'hydro';
	'hydro';
	'hydro';
	'hydro';
	'hydro';
	'hydro';
	'hydro';
	'hydro';
	'hydro';
	'hydro';
	'hydro';
	'hydro';
	'hydro';
	'hydro';
	'hydro';
	'hydro';
	'hydro';
	'hydro';
	'hydro';
	'hydro';
	'hydro';
	'wind';
	'hydro';
	'hydro';
	'unknown';
	'biomass';
	'biomass';
	'hydro';
	'hydro';
	'hydro';
	'hydro';
	'hydro';
	'hydro';
	'hydro';
	'hydro';
	'hydro';
	'hydro';
	'hydro';
	'hydro';
	'hydro';
	'hydro';
	'hydro';
	'hydro';
	'hydro';
	'wind';
	'ng';
	'ng';
	'ng';
	'hydro';
	'hydro';
	'hydro';
	'hydro';
	'hydro';
	'hydro';
	'hydro';
	'hydro';
	'hydro';
	'hydro';
	'hydro';
	'nuclear';
	'ng';
	'nuclear';
	'hydro';
	'hydro';
	'wind';
	'wind';
	'ng';
	'unknown';
	'ng';
	'unknown';
	'ng';
	'ng';
	'ng';
	'ng';
	'ng';
	'ng';
	'ng';
	'ng';
	'ng';
	'ng';
	'ng';
	'ng';
	'ng';
	'ng';
	'wind';
	'biomass';
	'biomass';
	'biomass';
	'coal';
	'coal';
	'ng';
	'hydro';
	'hydro';
	'hydro';
	'refuse';
	'wind';
	'refuse';
	'wind';
	'hydro';
	'hydro';
	'unknown';
	'hydro';
	'hydro';
	'hydro';
	'hydro';
	'hydro';
	'unknown';
	'unknown';
	'unknown';
	'unknown';
	'unknown';
	'unknown';
	'unknown';
	'ng';
	'nuclear';
	'hydro';
	'hydro';
	'coal';
	'hydro';
	'hydro';
	'coal';
	'ng';
	'ng';
	'biomass';
	'biomass';
	'hydro';
	'hydro';
	'ng';
	'ng';
	'ng';
	'ng';
	'ng';
	'ng';
	'ng';
	'ng';
	'biomass';
	'biomass';
	'biomass';
	'biomass';
	'biomass';
	'hydro';
	'hydro';
	'hydro';
	'hydro';
	'biomass';
	'wind';
	'wind';
	'coal';
	'coal';
	'coal';
	'hydro';
	'hydro';
	'hydro';
	'hydro';
	'hydro';
	'hydro';
	'hydro';
	'hydro';
	'hydro';
	'hydro';
	'hydro';
	'hydro';
	'hydro';
	'hydro';
	'hydro';
	'hydro';
	'hydro';
	'hydro';
	'hydro';
	'hydro';
	'hydro';
	'hydro';
	'hydro';
	'hydro';
	'hydro';
	'hydro';
	'ng';
	'hydro';
	'hydro';
	'hydro';
	'hydro';
	'hydro';
	'hydro';
	'hydro';
	'hydro';
	'hydro';
	'hydro';
	'hydro';
	'hydro';
	'hydro';
	'hydro';
	'ng';
	'ng';
	'hydro';
	'hydro';
	'hydro';
	'hydro';
	'hydro';
	'hydro';
	'hydro';
	'hydro';
	'hydro';
	'biomass';
	'hydro';
	'hydro';
	'hydro';
	'hydro';
	'hydro';
	'hydro';
	'hydro';
	'hydro';
	'hydro';
	'hydro';
	'hydro';
	'hydro';
	'hydro';
	'hydro';
	'hydro';
	'hydro';
	'hydro';
	'hydro';
	'hydro';
	'hydro';
	'hydro';
	'hydro';
	'hydro';
	'hydro';
	'hydro';
	'hydro';
	'hydro';
	'hydro';
	'hydro';
	'hydro';
	'hydro';
	'hydro';
	'hydro';
	'hydro';
	'hydro';
	'hydro';
	'hydro';
	'biomass';
	'biomass';
	'biomass';
	'biomass';
	'biomass';
	'biomass';
	'biomass';
	'biomass';
	'hydro';
	'hydro';
	'ng';
	'ng';
	'hydro';
	'hydro';
	'hydro';
	'hydro';
	'hydro';
	'hydro';
	'ng';
	'ng';
	'hydro';
	'hydro';
	'hydro';
	'hydro';
	'biomass';
	'biomass';
	'hydro';
	'hydro';
	'ng';
	'ng';
	'ng';
	'hydro';
	'hydro';
	'hydro';
	'ng';
	'ng';
	'biomass';
	'hydro';
	'hydro';
	'hydro';
	'hydro';
	'hydro';
	'hydro';
	'hydro';
	'hydro';
	'hydro';
	'hydro';
	'hydro';
	'hydro';
	'hydro';
	'hydro';
	'hydro';
	'hydro';
	'hydro';
	'hydro';
	'hydro';
	'hydro';
	'ng';
	'ng';
	'hydro';
	'hydro';
	'hydro';
	'ng';
	'ng';
	'ng';
	'ng';
	'ng';
	'wind';
	'wind';
	'wind';
	'wind';
	'wind';
	'wind';
	'wind';
	'hydro';
	'hydro';
	'ng';
	'hydro';
	'hydro';
	'hydro';
	'hydro';
	'hydro';
	'hydro';
	'hydro';
	'hydro';
	'unknown';
	'ng';
	'ng';
	'hydro';
	'hydro';
	'hydro';
	'hydro';
	'hydro';
	'hydro';
	'hydro';
	'hydro';
	'hydro';
	'hydro';
	'hydro';
	'hydro';
	'hydro';
	'hydro';
	'hydro';
	'hydro';
	'hydro';
	'hydro';
	'hydro';
	'hydro';
	'hydro';
	'hydro';
	'hydro';
	'hydro';
	'hydro';
	'hydro';
	'hydro';
	'hydro';
	'hydro';
	'wind';
	'wind';
	'wind';
	'wind';
	'wind';
	'wind';
	'ng';
	'ng';
	'ng';
	'ng';
	'ng';
	'hydro';
	'hydro';
	'hydro';
	'hydro';
	'hydro';
	'hydro';
	'hydro';
	'hydro';
	'hydro';
	'hydro';
	'hydro';
	'hydro';
	'hydro';
	'hydro';
	'hydro';
	'hydro';
	'ng';
	'ng';
	'ng';
	'ng';
	'hydro';
	'hydro';
	'hydro';
	'hydro';
	'ng';
	'nuclear';
	'nuclear';
	'nuclear';
	'nuclear';
	'nuclear';
	'nuclear';
	'nuclear';
	'nuclear';
	'nuclear';
	'nuclear';
	'nuclear';
	'nuclear';
	'ng';
	'ng';
	'ng';
	'ng';
	'ng';
	'ng';
	'ng';
	'ng';
	'ng';
	'ng';
	'ng';
	'ng';
	'ng';
	'ng';
	'hydro';
	'hydro';
	'hydro';
	'hydro';
	'hydro';
	'hydro';
	'hydro';
	'hydro';
	'hydro';
	'hydro';
	'hydro';
	'hydro';
	'hydro';
	'hydro';
	'hydro';
	'hydro';
	'hydro';
	'hydro';
	'hydro';
	'hydro';
	'hydro';
	'hydro';
	'hydro';
	'hydro';
	'hydro';
	'hydro';
	'hydro';
	'hydro';
	'hydro';
	'hydro';
	'hydro';
	'hydro';
	'hydro';
	'hydro';
	'hydro';
	'hydro';
	'hydro';
	'hydro';
	'ng';
	'ng';
	'coal';
	'coal';
	'coal';
	'coal';
	'coal';
	'coal';
	'coal';
	'coal';
	'wind';
	'wind';
	'wind';
	'wind';
	'wind';
	'wind';
	'wind';
	'ng';
	'ng';
	'ng';
	'wind';
	'wind';
	'wind';
	'wind';
	'wind';
	'wind';
	'wind';
	'nuclear';
	'nuclear';
	'nuclear';
	'nuclear';
	'nuclear';
	'nuclear';
	'nuclear';
	'nuclear';
	'wind';
	'wind';
	'wind';
	'wind';
	'wind';
	'wind';
	'wind';
	'wind';
	'wind';
	'wind';
	'wind';
	'ng';
	'ng';
	'ng';
	'ng';
	'ng';
	'coal';
	'coal';
	'coal';
	'coal';
	'coal';
	'ng';
	'unknown';
	'ng';
	'ng';
	'ng';
	'ng';
	'biomass';
	'ng';
	'ng';
	'biomass';
	'ng';
	'ng';
	'ng';
	'ng';
	'ng';
	'ng';
	'ng';
	'ng';
	'ng';
	'wind';
	'wind';
	'wind';
	'wind';
	'wind';
	'wind';
	'wind';
	'wind';
	'ng';
	'ng';
	'ng';
	'ng';
	'ng';
	'ng';
	'ng';
	'wind';
	'wind';
	'wind';
	'wind';
	'wind';
	'wind';
	'wind';
	'wind';
	'wind';
	'wind';
	'wind';
	'wind';
	'wind';
	'wind';
	'wind';
	'hydro';
	'hydro';
	'coal';
	'hydro';
	'hydro';
	'hydro';
	'hydro';
	'hydro';
	'hydro';
	'hydro';
	'hydro';
	'hydro';
	'hydro';
	'hydro';
	'hydro';
	'hydro';
	'hydro';
	'hydro';
	'hydro';
	'hydro';
	'hydro';
	'hydro';
	'hydro';
	'hydro';
	'hydro';
	'hydro';
	'hydro';
	'hydro';
	'hydro';
	'hydro';
	'hydro';
	'hydro';
	'hydro';
	'hydro';
	'hydro';
	'hydro';
	'hydro';
	'hydro';
	'hydro';
	'hydro';
	'hydro';
	'hydro';
	'hydro';
	'hydro';
	'hydro';
	'hydro';
	'hydro';
	'hydro';
	'hydro';
	'hydro';
	'hydro';
	'hydro';
	'hydro';
	'hydro';
	'hydro';
	'hydro';
	'hydro';
	'hydro';
	'hydro';
	'hydro';
	'hydro';
	'hydro';
	'hydro';
	'hydro';
	'hydro';
	'hydro';
	'hydro';
	'hydro';
	'hydro';
	'hydro';
	'biomass';
	'hydro';
	'hydro';
	'hydro';
	'hydro';
	'hydro';
	'hydro';
	'hydro';
	'hydro';
	'hydro';
	'hydro';
	'hydro';
	'hydro';
	'hydro';
	'hydro';
	'biomass';
	'hydro';
	'hydro';
	'hydro';
	'hydro';
	'hydro';
	'hydro';
	'hydro';
	'hydro';
	'hydro';
	'hydro';
	'hydro';
	'hydro';
	'hydro';
	'wind';
	'wind';
	'nuclear';
	'ng';
	'biomass';
	'hydro';
	'hydro';
	'hydro';
	'hydro';
	'hydro';
	'hydro';
	'hydro';
	'hydro';
	'hydro';
	'hydro';
	'hydro';
	'hydro';
	'ng';
	'ng';
	'hydro';
	'ng';
	'ng';
	'hydro';
	'hydro';
	'hydro';
	'hydro';
	'hydro';
	'hydro';
	'hydro';
	'hydro';
	'hydro';
	'hydro';
	'hydro';
	'hydro';
	'hydro';
	'hydro';
	'hydro';
	'hydro';
	'hydro';
	'hydro';
	'hydro';
	'hydro';
	'hydro';
	'hydro';
	'hydro';
	'hydro';
	'hydro';
	'hydro';
	'hydro';
	'hydro';
	'hydro';
	'hydro';
	'hydro';
	'hydro';
	'hydro';
	'hydro';
	'hydro';
	'hydro';
	'ng';
	'ng';
	'ng';
	'hydro';
	'hydro';
	'biomass';
	'hydro';
	'biomass';
	'biomass';
	'hydro';
	'hydro';
	'biomass';
	'biomass';
	'hydro';
	'hydro';
	'biomass';
	'biomass';
	'ng';
	'wind';
	'unknown';
	'hydro';
	'hydro';
	'hydro';
	'hydro';
	'hydro';
	'hydro';
	'hydro';
	'hydro';
	'hydro';
	'hydro';
	'hydro';
	'hydro';
	'hydro';
	'hydro';
	'hydro';
	'ng';
	'wind';
	'ng';
	'ng';
	'hydro';
	'hydro';
	'hydro';
	'hydro';
	'hydro';
	'hydro';
	'nuclear';
	'coal';
	'coal';
	'coal';
	'coal';
	'coal';
	'coal';
	'coal';
	'coal';
	'coal';
	'hydro';
	'hydro';
	'hydro';
	'hydro';
	'coal';
	'ng';
	'ng';
	'ng';
	'ng';
	'ng';
	'ng';
	'ng';
	'biomass';
	'biomass';
	'wind';
	'wind';
	'wind';
	'wind';
	'wind';
	'wind';
	'wind';
	'wind';
	'hydro';
	'biomass';
	'hydro';
	'hydro';
	'unknown';
	'unknown';
	'unknown';
	'unknown';
	'oil';
	'unknown';
	'unknown';
	'unknown';
	'unknown';
	'hydro';
	'biomass';
	'hydro';
	'hydro';
	'hydro';
	'hydro';
	'wind';
	'wind';
	'wind';
	'wind';
	'wind';
	'oil';
	'oil';
	'oil';
	'oil';
	'oil';
	'coal';
	'coal';
	'coal';
	'coal';
	'ng';
	'ng';
	'hydro';
	'hydro';
	'coal';
	'hydro';
	'hydro';
	'coal';
	'hydro';
	'coal';
	'coal';
	'hydro';
	'hydro';
	'hydro';
	'hydro';
	'biomass';
	'ng';
	'ng';
	'ng';
	'ng';
	'ng';
	'ng';
	'ng';
	'ng';
	'ng';
	'ng';
	'hydro';
	'hydro';
	'hydro';
	'hydro';
	'hydro';
	'hydro';
	'hydro';
	'hydro';
	'hydro';
	'biomass';
	'hydro';
	'hydro';
	'hydro';
	'hydro';
	'hydro';
	'hydro';
	'hydro';
	'hydro';
	'hydro';
	'hydro';
	'hydro';
	'hydro';
	'hydro';
	'hydro';
	'hydro';
	'hydro';
	'hydro';
	'hydro';
	'hydro';
	'hydro';
	'hydro';
	'hydro';
	'wind';
	'wind';
	'wind';
	'wind';
	'wind';
	'wind';
	'wind';
	'wind';
	'coal';
	'oil';
	'coal';
	'oil';
	'coal';
	'unknown';
	'unknown';
	'unknown';
	'coal';
	'nuclear';
	'nuclear';
	'nuclear';
	'nuclear';
	'nuclear';
	'ng';
	'biomass';
	'biomass';
	'biomass';
	'biomass';
	'solar';
	'solar';
	'unknown';
	'unknown';
	'wind';
	'solar';
	'ng';
	'unknown';
	'unknown';
	'unknown';
	'unknown';
	'unknown';
	'ng';
	'solar';
	'solar';
	'solar';
	'nuclear';
	'nuclear';
	'nuclear';
	'nuclear';
	'ng';
	'ng';
	'ng';
	'ng';
	'ng';
	'ng';
	'ng';
	'ng';
	'ng';
	'ng';
	'ng';
	'ng';
	'ng';
	'ng';
	'ng';
	'oil';
	'ng';
	'ng';
	'ng';
	'wind';
	'ng';
	'ng';
	'coal';
	'coal';
	'hydro';
	'hydro';
	'hydro';
	'ng';
	'ng';
	'ng';
	'ng';
	'hydro';
	'hydro';
	'refuse';
	'biomass';
	'hydro';
	'biomass';
	'coal';
	'coal';
	'coal';
	'coal';
	'unknown';
	'coal';
	'coal';
	'coal';
	'coal';
	'coal';
	'coal';
	'coal';
	'unknown';
	'coal';
	'coal';
	'wind';
	'hydro';
	'hydro';
	'hydro';
	'hydro';
	'ng';
	'ng';
	'ng';
	'ng';
	'ng';
	'wind';
	'coal';
	'wind';
	'wind';
	'wind';
	'coal';
	'hydro';
	'hydro';
	'wind';
	'coal';
	'hydro';
	'hydro';
	'coal';
	'hydro';
	'hydro';
	'wind';
	'biomass';
	'biomass';
	'ng';
	'ng';
	'ng';
	'hydro';
	'hydro';
	'hydro';
	'hydro';
	'biomass';
	'biomass';
	'biomass';
	'biomass';
	'wind';
	'wind';
	'coal';
	'wind';
	'wind';
	'wind';
	'wind';
	'oil';
	'unknown';
	'hydro';
	'unknown';
	'unknown';
	'hydro';
	'ng';
	'biomass';
	'biomass';
	'biomass';
	'biomass';
	'biomass';
	'biomass';
	'ng';
	'ng';
	'coal';
	'coal';
	'coal';
	'coal';
	'biomass';
	'coal';
	'refuse';
	'coal';
	'refuse';
	'ng';
	'oil';
	'oil';
	'oil';
	'oil';
	'oil';
	'oil';
	'oil';
	'oil';
	'oil';
	'oil';
	'oil';
	'coal';
	'coal';
	'oil';
	'oil';
	'oil';
	'coal';
	'coal';
	'coal';
	'nuclear';
	'hydro';
	'oil';
	'ng';
	'ng';
	'ng';
	'ng';
	'ng';
	'ng';
	'biomass';
	'biomass';
	'biomass';
	'biomass';
	'solar';
	'ng';
	'ng';
	'ng';
	'ng';
	'biomass';
	'biomass';
	'biomass';
	'solar';
	'biomass';
	'biomass';
	'biomass';
	'biomass';
	'biomass';
	'biomass';
	'ng';
	'ng';
	'ng';
	'ng';
	'ng';
	'ng';
	'refuse';
	'solar';
	'biomass';
	'biomass';
	'ng';
	'wind';
	'refuse';
	'nuclear';
	'ng';
	'ng';
	'ng';
	'ng';
	'ng';
	'ng';
	'unknown';
	'unknown';
	'unknown';
	'ng';
	'ng';
	'ng';
	'ng';
	'ng';
	'ng';
	'ng';
	'ng';
	'ng';
	'ng';
	'ng';
	'hydro';
	'hydro';
	'hydro';
	'ng';
	'ng';
	'ng';
	'ng';
	'ng';
	'refuse';
	'ng';
	'ng';
	'ng';
	'ng';
	'ng';
	'ng';
	'ng';
	'unknown';
	'ng';
	'ng';
	'ng';
	'oil';
	'oil';
	'ng';
	'oil';
	'oil';
	'ng';
	'ng';
	'ng';
	'ng';
	'ng';
	'ng';
	'ng';
	'ng';
	'ng';
	'ng';
	'ng';
	'ng';
	'biomass';
	'biomass';
	'biomass';
	'unknown';
	'unknown';
	'oil';
	'coal';
	'coal';
	'coal';
	'hydro';
	'hydro';
	'hydro';
	'hydro';
	'hydro';
	'hydro';
	'hydro';
	'hydro';
	'hydro';
	'hydro';
	'hydro';
	'hydro';
	'ng';
	'ng';
	'ng';
	'ng';
	'ng';
	'coal';
	'coal';
	'coal';
	'hydro';
	'hydro';
	'hydro';
	'hydro';
	'hydro';
	'hydro';
	'hydro';
	'hydro';
	'hydro';
	'hydro';
	'hydro';
	'hydro';
	'hydro';
	'hydro';
	'nuclear';
	'hydro';
	'hydro';
	'unknown';
	'unknown';
	'unknown';
	'unknown';
	'solar';
	'biomass';
	'biomass';
	'biomass';
	'biomass';
	'biomass';
	'biomass';
	'biomass';
	'biomass';
	'biomass';
	'biomass';
	'biomass';
	'biomass';
	'biomass';
	'biomass';
	'biomass';
	'biomass';
	'biomass';
	'biomass';
	'biomass';
	'biomass';
	'biomass';
	'biomass';
	'biomass';
	'solar';
	'unknown';
	'unknown';
	'unknown';
	'unknown';
	'unknown';
	'unknown';
	'solar';
	'unknown';
	'unknown';
	'biomass';
	'unknown';
	'unknown';
	'unknown';
	'ng';
	'ng';
	'ng';
	'ng';
	'unknown';
	'unknown';
	'biomass';
	'ng';
	'unknown';
	'unknown';
	'wind';
	'ng';
	'solar';
	'solar';
	'coal';
	'solar';
	'coal';
	'refuse';
	'biomass';
	'coal';
	'coal';
	'ng';
	'ng';
	'ng';
	'ng';
	'biomass';
	'biomass';
	'biomass';
	'coal';
	'coal';
	'coal';
	'unknown';
	'coal';
	'coal';
	'oil';
	'ng';
	'biomass';
	'coal';
	'coal';
	'ng';
	'ng';
	'ng';
	'ng';
	'wind';
	'solar';
	'biomass';
	'wind';
	'biomass';
	'biomass';
	'solar';
	'biomass';
	'biomass';
	'biomass';
	'biomass';
	'biomass';
	'wind';
	'oil';
	'refuse';
	'biomass';
	'oil';
	'oil';
	'oil';
	'hydro';
	'hydro';
	'hydro';
	'hydro';
	'hydro';
	'hydro';
	'hydro';
	'hydro';
	'hydro';
	'biomass';
	'biomass';
	'hydro';
	'hydro';
	'solar';
	'ng';
	'solar';
	'solar';
	'solar';
	'solar';
	'solar';
	'solar';
	'solar';
	'solar';
	'solar';
	'solar';
	'biomass';
	'biomass';
	'biomass';
	'biomass';
	'biomass';
	'solar';
	'solar';
	'solar';
	'solar';
	'solar';
	'solar';
	'biomass';
	'biomass';
	'solar';
	'biomass';
	'solar';
	'solar';
	'solar';
	'solar';
	'solar';
	'solar';
	'ng';
	'solar';
	'ng';
	'ng';
	'refuse';
	'refuse';
	'oil';
	'oil';
	'oil';
	'oil';
	'oil';
	'oil';
	'oil';
	'oil';
	'biomass';
	'biomass';
	'oil';
	'oil';
	'oil';
	'oil';
	'oil';
	'oil';
	'coal';
	'coal';
	'coal';
	'oil';
	'oil';
	'biomass';
	'biomass';
	'oil';
	'oil';
	'oil';
	'ng';
	'ng';
	'ng';
	'ng';
	'ng';
	'ng';
	'ng';
	'ng';
	'coal';
	'ng';
	'ng';
	'ng';
	'nuclear';
	'hydro';
	'hydro';
	'hydro';
	'hydro';
	'hydro';
	'hydro';
	'hydro';
	'hydro';
	'ng';
	'ng';
	'ng';
	'unknown';
	'unknown';
	'unknown';
	'ng';
	'ng';
	'ng';
	'unknown';
	'ng';
	'ng';
	'refuse';
	'oil';
	'oil';
	'oil';
	'solar';
	'biomass';
	'biomass';
	'ng';
	'ng';
	'ng';
	'ng';
	'oil';
	'oil';
	'oil';
	'oil';
	'oil';
	'oil';
	'oil';
	'oil';
	'oil';
	'oil';
	'refuse';
	'refuse';
	'solar';
	'solar';
	'ng';
	'ng';
	'ng';
	'solar';
	'hydro';
	'hydro';
	'hydro';
	'hydro';
	'solar';
	'hydro';
	'hydro';
	'hydro';
	'ng';
	'ng';
	'ng';
	'ng';
	'ng';
	'ng';
	'ng';
	'ng';
	'ng';
	'ng';
	'refuse';
	'ng';
	'refuse';
	'ng';
	'ng';
	'ng';
	'ng';
	'ng';
	'ng';
	'ng';
	'ng';
	'ng';
	'ng';
	'ng';
	'ng';
	'ng';
	'ng';
	'ng';
	'ng';
	'coal';
	'ng';
	'ng';
	'ng';
	'ng';
	'ng';
	'ng';
	'ng';
	'ng';
	'ng';
	'ng';
	'ng';
	'ng';
	'ng';
	'ng';
	'ng';
	'ng';
	'ng';
	'solar';
	'refuse';
	'unknown';
	'refuse';
	'ng';
	'ng';
	'ng';
	'ng';
	'ng';
	'ng';
	'ng';
	'ng';
	'ng';
	'ng';
	'ng';
	'ng';
	'ng';
	'ng';
	'ng';
	'ng';
	'ng';
	'ng';
	'oil';
	'ng';
	'ng';
	'ng';
	'ng';
	'ng';
	'ng';
	'ng';
	'ng';
	'ng';
	'unknown';
	'ng';
	'ng';
	'unknown';
	'unknown';
	'unknown';
	'ng';
	'unknown';
	'unknown';
	'ng';
	'biomass';
	'biomass';
	'biomass';
	'ng';
	'ng';
	'solar';
	'ng';
	'solar';
	'solar';
	'solar';
	'solar';
	'solar';
...